  Page 1                                    Tue Jun 11 10:43:43 2019

  ******************************************************************
  *                           E P A N E T                          *
  *                   Hydraulic and Water Quality                  *
  *                   Analysis for Pipe Networks                   *
  *                         Version 2.00.12                        *
  ******************************************************************
  
  Analysis begun Tue Jun 11 10:43:43 2019

   
  Hydraulic Status:
  -----------------------------------------------------------------------
     0:00:00: Balancing the network:
              Trial  1: relative flow change = 1.062008
              Trial  2: relative flow change = 0.877975
              CV 1033 switched from open to closed
              CV 1196 switched from open to closed
              CV 1210 switched from open to closed
              CV 1677 switched from open to closed
              Trial  3: relative flow change = 18.211258
              Trial  4: relative flow change = 0.004490
              CV 1210 switched from closed to open
              CV 1677 switched from closed to open
              Trial  5: relative flow change = 0.258384
              Trial  6: relative flow change = 0.000022
     0:00:00: Balanced after 6 trials
     0:00:00: Reservoir O is emptying
     0:00:00: Tank C is emptying at 1.84 m
     0:00:00: Tank A is emptying at 3.12 m
     0:00:00: Tank D is emptying at 1.94 m
     0:00:00: Tank B is emptying at 3.37 m
     0:00:00: Tank E is filling at 2.47 m
     0:00:00: Tank F is emptying at 1.96 m
     0:00:00: CV 1033 closed
     0:00:00: CV 1196 closed
   
     1:00:00: Balancing the network:
              Trial  1: relative flow change = 0.996978
              Trial  2: relative flow change = 2.099004
              CV 1154 switched from open to closed
              CV 1210 switched from open to closed
              CV 1677 switched from open to closed
              Pump 3A switched from open to closed
              Trial  3: relative flow change = 27.906050
              Trial  4: relative flow change = 0.003010
              CV 1033 switched from closed to open
              CV 1154 switched from closed to open
              CV 1210 switched from closed to open
              Pump 3A switched from closed to open
              Trial  5: relative flow change = 0.946994
              Trial  6: relative flow change = 1.080040
              CV 1033 switched from open to closed
              CV 1154 switched from open to closed
              CV 1210 switched from open to closed
              Trial  7: relative flow change = 1.000431
              Trial  8: relative flow change = 0.004690
              CV 1154 switched from closed to open
              CV 1210 switched from closed to open
              Trial  9: relative flow change = 0.338861
              Trial 10: relative flow change = 0.288223
              CV 1154 switched from open to closed
              CV 1210 switched from open to closed
              Trial 11: relative flow change = 0.166930
              Trial 12: relative flow change = 0.000378
              CV 1154 switched from closed to open
              CV 1210 switched from closed to open
              Trial 13: relative flow change = 0.338021
              Trial 14: relative flow change = 0.288223
              Trial 15: relative flow change = 0.062476
              Trial 16: relative flow change = 0.003226
              Trial 17: relative flow change = 0.000314
              CV 1196 switched from closed to open
              CV 1210 switched from open to closed
              Trial 18: relative flow change = 0.037497
              Trial 19: relative flow change = 0.002849
              Trial 20: relative flow change = 0.000014
     1:00:00: Balanced after 20 trials
     1:00:00: Tank A is filling at 3.07 m
     1:00:00: CV 1196 changed from closed to open
     1:00:00: CV 1210 changed from open to closed
     1:00:00: CV 1677 changed from open to closed
     1:00:00: Pump 2A changed from closed to open
     1:00:00: Pump 6D changed from closed to open
     1:00:00: Pump 3A changed from closed to open
   
     2:00:00: Balancing the network:
              Trial  1: relative flow change = 0.469231
              Trial  2: relative flow change = 0.079990
              Trial  3: relative flow change = 0.005939
              Trial  4: relative flow change = 0.000008
     2:00:00: Balanced after 4 trials
     2:00:00: Tank A is emptying at 3.19 m
     2:00:00: Tank B is filling at 2.64 m
     2:00:00: Pump 4B changed from closed to open
     2:00:00: Pump 1A changed from closed to open
   
     2:42:33: Balancing the network:
              Trial  1: relative flow change = 0.331218
              Trial  2: relative flow change = 0.035696
              CV 1783 switched from open to closed
              Trial  3: relative flow change = 0.017700
              Trial  4: relative flow change = 0.000000
     2:42:33: Balanced after 4 trials
     2:42:33: Tank D is filling at 1.64 m
     2:42:33: Tank E is emptying at 2.69 m
     2:42:33: CV 1783 changed from open to temporarily closed
     2:42:33: Pump 1A changed from open to closed
   
     3:00:00: Balancing the network:
              Trial  1: relative flow change = 0.019074
              Trial  2: relative flow change = 0.000079
              CV 1783 switched from closed to open
              Trial  3: relative flow change = 0.929807
              Trial  4: relative flow change = 1.008250
              Trial  5: relative flow change = 0.865097
              Trial  6: relative flow change = 0.661042
              Trial  7: relative flow change = 0.436912
              Trial  8: relative flow change = 0.251368
              Trial  9: relative flow change = 0.130378
              Trial 10: relative flow change = 0.063072
              Trial 11: relative flow change = 0.028520
              Trial 12: relative flow change = 0.011058
              Trial 13: relative flow change = 0.002654
              Trial 14: relative flow change = 0.000183
     3:00:00: Balanced after 14 trials
     3:00:00: Tank E is filling at 2.65 m
     3:00:00: CV 1783 changed from temporarily closed to open
   
     3:29:11: Balancing the network:
              Trial  1: relative flow change = 0.004391
              Trial  2: relative flow change = 0.000015
              CV 1783 switched from open to closed
              Trial  3: relative flow change = 0.016229
              Trial  4: relative flow change = 0.000000
     3:29:11: Balanced after 4 trials
     3:29:11: Tank E is emptying at 2.69 m
     3:29:11: CV 1783 changed from open to temporarily closed
   
     4:00:00: Balancing the network:
              Trial  1: relative flow change = 0.038143
              Trial  2: relative flow change = 0.000074
              CV 1783 switched from closed to open
              Trial  3: relative flow change = 0.941622
              Trial  4: relative flow change = 1.034315
              Trial  5: relative flow change = 0.907766
              Trial  6: relative flow change = 0.717036
              Trial  7: relative flow change = 0.492165
              Trial  8: relative flow change = 0.292519
              Trial  9: relative flow change = 0.155162
              Trial 10: relative flow change = 0.076222
              Trial 11: relative flow change = 0.035129
              Trial 12: relative flow change = 0.014350
              Trial 13: relative flow change = 0.004041
              Trial 14: relative flow change = 0.000409
     4:00:00: Balanced after 14 trials
     4:00:00: Tank E is filling at 2.63 m
     4:00:00: CV 1783 changed from temporarily closed to open
   
     4:35:16: Balancing the network:
              Trial  1: relative flow change = 0.242519
              Trial  2: relative flow change = 0.001261
              CV 1783 switched from open to closed
              Trial  3: relative flow change = 0.017907
              Trial  4: relative flow change = 0.000000
     4:35:16: Balanced after 4 trials
     4:35:16: Tank A is filling at 2.96 m
     4:35:16: Tank B is emptying at 3.36 m
     4:35:16: Tank E is emptying at 2.69 m
     4:35:16: CV 1783 changed from open to temporarily closed
     4:35:16: Pump 4B changed from open to closed
   
     5:00:00: Balancing the network:
              Trial  1: relative flow change = 0.012963
              Trial  2: relative flow change = 0.000004
              CV 1783 switched from closed to open
              Trial  3: relative flow change = 0.950125
              Trial  4: relative flow change = 1.053495
              Trial  5: relative flow change = 0.940432
              Trial  6: relative flow change = 0.762518
              Trial  7: relative flow change = 0.540260
              Trial  8: relative flow change = 0.330579
              Trial  9: relative flow change = 0.179014
              Trial 10: relative flow change = 0.089081
              Trial 11: relative flow change = 0.041481
              Trial 12: relative flow change = 0.017280
              Trial 13: relative flow change = 0.005153
              Trial 14: relative flow change = 0.000600
     5:00:00: Balanced after 14 trials
     5:00:00: Tank E is filling at 2.65 m
     5:00:00: CV 1783 changed from temporarily closed to open
   
     5:20:35: Balancing the network:
              Trial  1: relative flow change = 0.000630
              CV 1783 switched from open to closed
              Trial  2: relative flow change = 0.018107
              Trial  3: relative flow change = 0.000000
     5:20:35: Balanced after 3 trials
     5:20:35: Tank E is emptying at 2.69 m
     5:20:35: CV 1783 changed from open to temporarily closed
   
     6:00:00: Balancing the network:
              Trial  1: relative flow change = 0.003135
              Trial  2: relative flow change = 0.000000
              CV 1783 switched from closed to open
              Trial  3: relative flow change = 0.951288
              Trial  4: relative flow change = 1.056146
              Trial  5: relative flow change = 0.945034
              Trial  6: relative flow change = 0.769120
              Trial  7: relative flow change = 0.547502
              Trial  8: relative flow change = 0.336507
              Trial  9: relative flow change = 0.182824
              Trial 10: relative flow change = 0.091173
              Trial 11: relative flow change = 0.042540
              Trial 12: relative flow change = 0.017798
              Trial 13: relative flow change = 0.005379
              Trial 14: relative flow change = 0.000649
     6:00:00: Balanced after 14 trials
     6:00:00: Tank E is filling at 2.63 m
     6:00:00: CV 1783 changed from temporarily closed to open
   
     6:29:04: Balancing the network:
              Trial  1: relative flow change = 0.278357
              Trial  2: relative flow change = 0.036833
              CV 1783 switched from open to closed
              Trial  3: relative flow change = 0.019669
              Trial  4: relative flow change = 0.000356
     6:29:04: Balanced after 4 trials
     6:29:04: Tank A is emptying at 3.36 m
     6:29:04: Tank B is filling at 2.84 m
     6:29:04: Tank E is emptying at 2.69 m
     6:29:04: Tank F is filling at 1.71 m
     6:29:04: CV 1783 changed from open to temporarily closed
     6:29:04: Pump 7F changed from closed to open
     6:29:04: Pump 4B changed from closed to open
   
     7:00:00: Balancing the network:
              Trial  1: relative flow change = 0.010530
              Trial  2: relative flow change = 0.000027
              CV 1783 switched from closed to open
              Trial  3: relative flow change = 0.949154
              Trial  4: relative flow change = 1.051287
              Trial  5: relative flow change = 0.936615
              Trial  6: relative flow change = 0.757083
              Trial  7: relative flow change = 0.534360
              Trial  8: relative flow change = 0.325809
              Trial  9: relative flow change = 0.176010
              Trial 10: relative flow change = 0.087520
              Trial 11: relative flow change = 0.040844
              Trial 12: relative flow change = 0.017204
              Trial 13: relative flow change = 0.005332
              Trial 14: relative flow change = 0.000687
     7:00:00: Balanced after 14 trials
     7:00:00: Tank E is filling at 2.60 m
     7:00:00: CV 1783 changed from temporarily closed to open
   
     7:08:39: Balancing the network:
              Trial  1: relative flow change = 0.342303
              Trial  2: relative flow change = 0.058789
              CV 1196 switched from open to closed
              Trial  3: relative flow change = 0.073802
              Trial  4: relative flow change = 0.000659
     7:08:39: Balanced after 4 trials
     7:08:39: Tank C is filling at 1.04 m
     7:08:39: Tank A is filling at 3.31 m
     7:08:39: Tank D is emptying at 2.11 m
     7:08:39: Tank B is emptying at 3.10 m
     7:08:39: Tank F is emptying at 1.98 m
     7:08:39: CV 1196 changed from open to temporarily closed
     7:08:39: Pump 7F changed from open to closed
     7:08:39: Pump 5C changed from closed to open
     7:08:39: Pump 4B changed from open to closed
   
     7:22:45: Balancing the network:
              Trial  1: relative flow change = 0.000515
              CV 1196 switched from closed to open
              Pipe 1879 switched from open to closed
              Pipe p2 switched from open to closed
              Trial  2: relative flow change = 2.038913
              Trial  3: relative flow change = 0.688606
              CV 1154 switched from open to closed
              CV 1196 switched from open to closed
              CV 1210 switched from closed to open
              Trial  4: relative flow change = 0.704250
              Trial  5: relative flow change = 0.000603
              CV 1154 switched from closed to open
              Trial  6: relative flow change = 0.805296
              Trial  7: relative flow change = 1.135386
              CV 1154 switched from open to closed
              CV 1210 switched from open to closed
              Trial  8: relative flow change = 1.119093
              Trial  9: relative flow change = 0.004749
              CV 1154 switched from closed to open
              CV 1210 switched from closed to open
              Trial 10: relative flow change = 0.766941
              Trial 11: relative flow change = 1.031469
              Trial 12: relative flow change = 0.301736
              Trial 13: relative flow change = 0.019871
              Trial 14: relative flow change = 0.001273
              Trial 15: relative flow change = 0.000001
              CV 1196 switched from closed to open
              CV 1210 switched from open to closed
              Trial 16: relative flow change = 0.169182
              Trial 17: relative flow change = 0.014771
              Trial 18: relative flow change = 0.000094
     7:22:45: Balanced after 18 trials
     7:22:45: Tank A is emptying at 3.37 m
     7:22:45: Tank D is filling at 2.06 m
     7:22:45: CV 1196 changed from temporarily closed to open
     7:22:45: Pipe 1879 changed from open to temporarily closed
     7:22:45: Pipe p2 changed from open to temporarily closed
   
     7:50:25: Balancing the network:
              Trial  1: relative flow change = 0.001120
              Trial  2: relative flow change = 0.000002
              CV 1783 switched from open to closed
              Pipe 1879 switched from closed to open
              Pipe p2 switched from closed to open
              Trial  3: relative flow change = 0.949545
              Trial  4: relative flow change = 1.592385
              Trial  5: relative flow change = 0.636112
              Trial  6: relative flow change = 0.053398
              Trial  7: relative flow change = 0.004569
              Trial  8: relative flow change = 0.000004
     7:50:25: Balanced after 8 trials
     7:50:25: Tank A is filling at 3.26 m
     7:50:25: Tank E is emptying at 2.69 m
     7:50:25: CV 1783 changed from open to temporarily closed
     7:50:25: Pipe 1879 changed from temporarily closed to open
     7:50:25: Pipe p2 changed from temporarily closed to open
   
     7:51:51: Balancing the network:
              Trial  1: relative flow change = 0.000036
              CV 1196 switched from open to closed
              CV 1783 switched from closed to open
              Trial  2: relative flow change = 0.956973
              Trial  3: relative flow change = 1.062044
              Trial  4: relative flow change = 0.955351
              Trial  5: relative flow change = 0.784103
              Trial  6: relative flow change = 0.564190
              Trial  7: relative flow change = 0.350368
              Trial  8: relative flow change = 0.191823
              Trial  9: relative flow change = 0.096137
              Trial 10: relative flow change = 0.045045
              Trial 11: relative flow change = 0.019005
              Trial 12: relative flow change = 0.005891
              Trial 13: relative flow change = 0.000758
     7:51:51: Balanced after 13 trials
     7:51:51: Tank D is emptying at 2.11 m
     7:51:51: Tank E is filling at 2.69 m
     7:51:51: CV 1196 changed from open to temporarily closed
     7:51:51: CV 1783 changed from temporarily closed to open
   
     7:52:48: Balancing the network:
              Trial  1: relative flow change = 0.000048
              CV 1196 switched from closed to open
              CV 1783 switched from open to closed
              Trial  2: relative flow change = 0.278993
              Trial  3: relative flow change = 0.206689
              CV 1154 switched from open to closed
              CV 1196 switched from open to closed
              CV 1210 switched from closed to open
              Trial  4: relative flow change = 0.146161
              Trial  5: relative flow change = 0.000118
              CV 1154 switched from closed to open
              Trial  6: relative flow change = 0.440458
              Trial  7: relative flow change = 0.411933
              CV 1154 switched from open to closed
              CV 1210 switched from open to closed
              Trial  8: relative flow change = 0.251643
              Trial  9: relative flow change = 0.000207
              CV 1154 switched from closed to open
              CV 1210 switched from closed to open
              Trial 10: relative flow change = 0.391676
              Trial 11: relative flow change = 0.352900
              Trial 12: relative flow change = 0.090323
              Trial 13: relative flow change = 0.006634
              Trial 14: relative flow change = 0.000416
              CV 1196 switched from closed to open
              CV 1210 switched from open to closed
              Trial 15: relative flow change = 0.044677
              Trial 16: relative flow change = 0.003731
              Trial 17: relative flow change = 0.000024
     7:52:48: Balanced after 17 trials
     7:52:48: Tank D is filling at 2.11 m
     7:52:48: Tank E is emptying at 2.69 m
     7:52:48: CV 1196 changed from temporarily closed to open
     7:52:48: CV 1783 changed from open to temporarily closed
   
     7:53:49: Balancing the network:
              Trial  1: relative flow change = 0.000026
              CV 1196 switched from open to closed
              CV 1783 switched from closed to open
              Trial  2: relative flow change = 0.956975
              Trial  3: relative flow change = 1.062049
              Trial  4: relative flow change = 0.955360
              Trial  5: relative flow change = 0.784115
              Trial  6: relative flow change = 0.564204
              Trial  7: relative flow change = 0.350380
              Trial  8: relative flow change = 0.191831
              Trial  9: relative flow change = 0.096142
              Trial 10: relative flow change = 0.045047
              Trial 11: relative flow change = 0.019005
              Trial 12: relative flow change = 0.005891
              Trial 13: relative flow change = 0.000758
     7:53:49: Balanced after 13 trials
     7:53:49: Tank D is emptying at 2.11 m
     7:53:49: Tank E is filling at 2.69 m
     7:53:49: CV 1196 changed from open to temporarily closed
     7:53:49: CV 1783 changed from temporarily closed to open
   
     7:54:29: Balancing the network:
              Trial  1: relative flow change = 0.000038
              CV 1196 switched from closed to open
              CV 1783 switched from open to closed
              Trial  2: relative flow change = 0.279034
              Trial  3: relative flow change = 0.206727
              CV 1154 switched from open to closed
              CV 1196 switched from open to closed
              CV 1210 switched from closed to open
              Trial  4: relative flow change = 0.146189
              Trial  5: relative flow change = 0.000118
              CV 1154 switched from closed to open
              Trial  6: relative flow change = 0.440509
              Trial  7: relative flow change = 0.411998
              CV 1154 switched from open to closed
              CV 1210 switched from open to closed
              Trial  8: relative flow change = 0.251699
              Trial  9: relative flow change = 0.000207
              CV 1154 switched from closed to open
              CV 1210 switched from closed to open
              Trial 10: relative flow change = 0.391726
              Trial 11: relative flow change = 0.352960
              Trial 12: relative flow change = 0.090349
              Trial 13: relative flow change = 0.006637
              Trial 14: relative flow change = 0.000415
              CV 1196 switched from closed to open
              CV 1210 switched from open to closed
              Trial 15: relative flow change = 0.044683
              Trial 16: relative flow change = 0.003732
              Trial 17: relative flow change = 0.000024
     7:54:29: Balanced after 17 trials
     7:54:29: Tank D is filling at 2.11 m
     7:54:29: Tank E is emptying at 2.69 m
     7:54:29: CV 1196 changed from temporarily closed to open
     7:54:29: CV 1783 changed from open to temporarily closed
   
     7:55:12: Balancing the network:
              Trial  1: relative flow change = 0.000018
              CV 1196 switched from open to closed
              CV 1783 switched from closed to open
              Trial  2: relative flow change = 0.956977
              Trial  3: relative flow change = 1.062053
              Trial  4: relative flow change = 0.955365
              Trial  5: relative flow change = 0.784124
              Trial  6: relative flow change = 0.564213
              Trial  7: relative flow change = 0.350389
              Trial  8: relative flow change = 0.191836
              Trial  9: relative flow change = 0.096145
              Trial 10: relative flow change = 0.045049
              Trial 11: relative flow change = 0.019006
              Trial 12: relative flow change = 0.005891
              Trial 13: relative flow change = 0.000758
     7:55:12: Balanced after 13 trials
     7:55:12: Tank D is emptying at 2.11 m
     7:55:12: Tank E is filling at 2.69 m
     7:55:12: CV 1196 changed from open to temporarily closed
     7:55:12: CV 1783 changed from temporarily closed to open
   
     7:55:40: Balancing the network:
              Trial  1: relative flow change = 0.000030
              CV 1196 switched from closed to open
              CV 1783 switched from open to closed
              Trial  2: relative flow change = 0.279063
              Trial  3: relative flow change = 0.206754
              CV 1154 switched from open to closed
              CV 1196 switched from open to closed
              CV 1210 switched from closed to open
              Trial  4: relative flow change = 0.146209
              Trial  5: relative flow change = 0.000118
              CV 1154 switched from closed to open
              Trial  6: relative flow change = 0.440545
              Trial  7: relative flow change = 0.412043
              CV 1154 switched from open to closed
              CV 1210 switched from open to closed
              Trial  8: relative flow change = 0.251739
              Trial  9: relative flow change = 0.000207
              CV 1154 switched from closed to open
              CV 1210 switched from closed to open
              Trial 10: relative flow change = 0.391761
              Trial 11: relative flow change = 0.353002
              Trial 12: relative flow change = 0.090366
              Trial 13: relative flow change = 0.006639
              Trial 14: relative flow change = 0.000415
              CV 1196 switched from closed to open
              CV 1210 switched from open to closed
              Trial 15: relative flow change = 0.044687
              Trial 16: relative flow change = 0.003732
              Trial 17: relative flow change = 0.000024
     7:55:40: Balanced after 17 trials
     7:55:40: Tank D is filling at 2.11 m
     7:55:40: Tank E is emptying at 2.69 m
     7:55:40: CV 1196 changed from temporarily closed to open
     7:55:40: CV 1783 changed from open to temporarily closed
   
     7:56:10: Balancing the network:
              Trial  1: relative flow change = 0.000012
              CV 1196 switched from open to closed
              CV 1783 switched from closed to open
              Trial  2: relative flow change = 0.956978
              Trial  3: relative flow change = 1.062055
              Trial  4: relative flow change = 0.955370
              Trial  5: relative flow change = 0.784130
              Trial  6: relative flow change = 0.564220
              Trial  7: relative flow change = 0.350394
              Trial  8: relative flow change = 0.191839
              Trial  9: relative flow change = 0.096147
              Trial 10: relative flow change = 0.045050
              Trial 11: relative flow change = 0.019006
              Trial 12: relative flow change = 0.005891
              Trial 13: relative flow change = 0.000758
     7:56:10: Balanced after 13 trials
     7:56:10: Tank D is emptying at 2.11 m
     7:56:10: Tank E is filling at 2.69 m
     7:56:10: CV 1196 changed from open to temporarily closed
     7:56:10: CV 1783 changed from temporarily closed to open
   
     7:56:30: Balancing the network:
              Trial  1: relative flow change = 0.000026
              CV 1196 switched from closed to open
              CV 1783 switched from open to closed
              Trial  2: relative flow change = 0.279084
              Trial  3: relative flow change = 0.206774
              CV 1154 switched from open to closed
              CV 1196 switched from open to closed
              CV 1210 switched from closed to open
              Trial  4: relative flow change = 0.146223
              Trial  5: relative flow change = 0.000118
              CV 1154 switched from closed to open
              Trial  6: relative flow change = 0.440571
              Trial  7: relative flow change = 0.412076
              CV 1154 switched from open to closed
              CV 1210 switched from open to closed
              Trial  8: relative flow change = 0.251767
              Trial  9: relative flow change = 0.000207
              CV 1154 switched from closed to open
              CV 1210 switched from closed to open
              Trial 10: relative flow change = 0.391786
              Trial 11: relative flow change = 0.353032
              Trial 12: relative flow change = 0.090379
              Trial 13: relative flow change = 0.006641
              Trial 14: relative flow change = 0.000415
              CV 1196 switched from closed to open
              CV 1210 switched from open to closed
              Trial 15: relative flow change = 0.044690
              Trial 16: relative flow change = 0.003732
              Trial 17: relative flow change = 0.000024
     7:56:30: Balanced after 17 trials
     7:56:30: Tank D is filling at 2.11 m
     7:56:30: Tank E is emptying at 2.69 m
     7:56:30: CV 1196 changed from temporarily closed to open
     7:56:30: CV 1783 changed from open to temporarily closed
   
     7:56:51: Balancing the network:
              Trial  1: relative flow change = 0.000009
              CV 1196 switched from open to closed
              CV 1783 switched from closed to open
              Trial  2: relative flow change = 0.956979
              Trial  3: relative flow change = 1.062057
              Trial  4: relative flow change = 0.955372
              Trial  5: relative flow change = 0.784134
              Trial  6: relative flow change = 0.564225
              Trial  7: relative flow change = 0.350398
              Trial  8: relative flow change = 0.191842
              Trial  9: relative flow change = 0.096148
              Trial 10: relative flow change = 0.045050
              Trial 11: relative flow change = 0.019007
              Trial 12: relative flow change = 0.005892
              Trial 13: relative flow change = 0.000758
     7:56:51: Balanced after 13 trials
     7:56:51: Tank D is emptying at 2.11 m
     7:56:51: Tank E is filling at 2.69 m
     7:56:51: CV 1196 changed from open to temporarily closed
     7:56:51: CV 1783 changed from temporarily closed to open
   
     7:57:05: Balancing the network:
              Trial  1: relative flow change = 0.000022
              CV 1196 switched from closed to open
              CV 1783 switched from open to closed
              Trial  2: relative flow change = 0.279098
              Trial  3: relative flow change = 0.206787
              CV 1154 switched from open to closed
              CV 1196 switched from open to closed
              CV 1210 switched from closed to open
              Trial  4: relative flow change = 0.146233
              Trial  5: relative flow change = 0.000118
              CV 1154 switched from closed to open
              Trial  6: relative flow change = 0.440589
              Trial  7: relative flow change = 0.412098
              CV 1154 switched from open to closed
              CV 1210 switched from open to closed
              Trial  8: relative flow change = 0.251786
              Trial  9: relative flow change = 0.000207
              CV 1154 switched from closed to open
              CV 1210 switched from closed to open
              Trial 10: relative flow change = 0.391803
              Trial 11: relative flow change = 0.353052
              Trial 12: relative flow change = 0.090388
              Trial 13: relative flow change = 0.006642
              Trial 14: relative flow change = 0.000414
              CV 1196 switched from closed to open
              CV 1210 switched from open to closed
              Trial 15: relative flow change = 0.044691
              Trial 16: relative flow change = 0.003733
              Trial 17: relative flow change = 0.000024
     7:57:05: Balanced after 17 trials
     7:57:05: Tank D is filling at 2.11 m
     7:57:05: Tank E is emptying at 2.69 m
     7:57:05: CV 1196 changed from temporarily closed to open
     7:57:05: CV 1783 changed from open to temporarily closed
   
     7:57:20: Balancing the network:
              Trial  1: relative flow change = 0.000006
              CV 1196 switched from open to closed
              CV 1783 switched from closed to open
              Trial  2: relative flow change = 0.956980
              Trial  3: relative flow change = 1.062058
              Trial  4: relative flow change = 0.955375
              Trial  5: relative flow change = 0.784137
              Trial  6: relative flow change = 0.564228
              Trial  7: relative flow change = 0.350401
              Trial  8: relative flow change = 0.191844
              Trial  9: relative flow change = 0.096149
              Trial 10: relative flow change = 0.045051
              Trial 11: relative flow change = 0.019007
              Trial 12: relative flow change = 0.005892
              Trial 13: relative flow change = 0.000758
     7:57:20: Balanced after 13 trials
     7:57:20: Tank D is emptying at 2.11 m
     7:57:20: Tank E is filling at 2.69 m
     7:57:20: CV 1196 changed from open to temporarily closed
     7:57:20: CV 1783 changed from temporarily closed to open
   
     7:57:30: Balancing the network:
              Trial  1: relative flow change = 0.000019
              CV 1196 switched from closed to open
              CV 1783 switched from open to closed
              Trial  2: relative flow change = 0.279109
              Trial  3: relative flow change = 0.206797
              CV 1154 switched from open to closed
              CV 1196 switched from open to closed
              CV 1210 switched from closed to open
              Trial  4: relative flow change = 0.146240
              Trial  5: relative flow change = 0.000118
              CV 1154 switched from closed to open
              Trial  6: relative flow change = 0.440602
              Trial  7: relative flow change = 0.412115
              CV 1154 switched from open to closed
              CV 1210 switched from open to closed
              Trial  8: relative flow change = 0.251800
              Trial  9: relative flow change = 0.000207
              CV 1154 switched from closed to open
              CV 1210 switched from closed to open
              Trial 10: relative flow change = 0.391816
              Trial 11: relative flow change = 0.353067
              Trial 12: relative flow change = 0.090394
              Trial 13: relative flow change = 0.006643
              Trial 14: relative flow change = 0.000414
              CV 1196 switched from closed to open
              CV 1210 switched from open to closed
              Trial 15: relative flow change = 0.044693
              Trial 16: relative flow change = 0.003733
              Trial 17: relative flow change = 0.000024
     7:57:30: Balanced after 17 trials
     7:57:30: Tank D is filling at 2.11 m
     7:57:30: Tank E is emptying at 2.69 m
     7:57:30: CV 1196 changed from temporarily closed to open
     7:57:30: CV 1783 changed from open to temporarily closed
   
     7:57:41: Balancing the network:
              Trial  1: relative flow change = 0.000005
              CV 1196 switched from open to closed
              CV 1783 switched from closed to open
              Trial  2: relative flow change = 0.956980
              Trial  3: relative flow change = 1.062059
              Trial  4: relative flow change = 0.955376
              Trial  5: relative flow change = 0.784139
              Trial  6: relative flow change = 0.564231
              Trial  7: relative flow change = 0.350403
              Trial  8: relative flow change = 0.191845
              Trial  9: relative flow change = 0.096150
              Trial 10: relative flow change = 0.045052
              Trial 11: relative flow change = 0.019007
              Trial 12: relative flow change = 0.005892
              Trial 13: relative flow change = 0.000758
     7:57:41: Balanced after 13 trials
     7:57:41: Tank D is emptying at 2.11 m
     7:57:41: Tank E is filling at 2.69 m
     7:57:41: CV 1196 changed from open to temporarily closed
     7:57:41: CV 1783 changed from temporarily closed to open
   
     7:57:48: Balancing the network:
              Trial  1: relative flow change = 0.000018
              CV 1196 switched from closed to open
              CV 1783 switched from open to closed
              Trial  2: relative flow change = 0.279116
              Trial  3: relative flow change = 0.206804
              CV 1154 switched from open to closed
              CV 1196 switched from open to closed
              CV 1210 switched from closed to open
              Trial  4: relative flow change = 0.146245
              Trial  5: relative flow change = 0.000118
              CV 1154 switched from closed to open
              Trial  6: relative flow change = 0.440611
              Trial  7: relative flow change = 0.412126
              CV 1154 switched from open to closed
              CV 1210 switched from open to closed
              Trial  8: relative flow change = 0.251810
              Trial  9: relative flow change = 0.000207
              CV 1154 switched from closed to open
              CV 1210 switched from closed to open
              Trial 10: relative flow change = 0.391825
              Trial 11: relative flow change = 0.353078
              Trial 12: relative flow change = 0.090399
              Trial 13: relative flow change = 0.006644
              Trial 14: relative flow change = 0.000414
              CV 1196 switched from closed to open
              CV 1210 switched from open to closed
              Trial 15: relative flow change = 0.044694
              Trial 16: relative flow change = 0.003733
              Trial 17: relative flow change = 0.000024
     7:57:48: Balanced after 17 trials
     7:57:48: Tank D is filling at 2.11 m
     7:57:48: Tank E is emptying at 2.69 m
     7:57:48: CV 1196 changed from temporarily closed to open
     7:57:48: CV 1783 changed from open to temporarily closed
   
     7:57:55: Balancing the network:
              Trial  1: relative flow change = 0.000003
              CV 1196 switched from open to closed
              CV 1783 switched from closed to open
              Trial  2: relative flow change = 0.956980
              Trial  3: relative flow change = 1.062059
              Trial  4: relative flow change = 0.955377
              Trial  5: relative flow change = 0.784141
              Trial  6: relative flow change = 0.564232
              Trial  7: relative flow change = 0.350405
              Trial  8: relative flow change = 0.191846
              Trial  9: relative flow change = 0.096150
              Trial 10: relative flow change = 0.045052
              Trial 11: relative flow change = 0.019007
              Trial 12: relative flow change = 0.005892
              Trial 13: relative flow change = 0.000758
     7:57:55: Balanced after 13 trials
     7:57:55: Tank D is emptying at 2.11 m
     7:57:55: Tank E is filling at 2.69 m
     7:57:55: CV 1196 changed from open to temporarily closed
     7:57:55: CV 1783 changed from temporarily closed to open
   
     7:58:00: Balancing the network:
              Trial  1: relative flow change = 0.000016
              CV 1196 switched from closed to open
              CV 1783 switched from open to closed
              Trial  2: relative flow change = 0.279121
              Trial  3: relative flow change = 0.206808
              CV 1154 switched from open to closed
              CV 1196 switched from open to closed
              CV 1210 switched from closed to open
              Trial  4: relative flow change = 0.146248
              Trial  5: relative flow change = 0.000118
              CV 1154 switched from closed to open
              Trial  6: relative flow change = 0.440617
              Trial  7: relative flow change = 0.412134
              CV 1154 switched from open to closed
              CV 1210 switched from open to closed
              Trial  8: relative flow change = 0.251817
              Trial  9: relative flow change = 0.000207
              CV 1154 switched from closed to open
              CV 1210 switched from closed to open
              Trial 10: relative flow change = 0.391831
              Trial 11: relative flow change = 0.353085
              Trial 12: relative flow change = 0.090402
              Trial 13: relative flow change = 0.006644
              Trial 14: relative flow change = 0.000414
              CV 1196 switched from closed to open
              CV 1210 switched from open to closed
              Trial 15: relative flow change = 0.044695
              Trial 16: relative flow change = 0.003733
              Trial 17: relative flow change = 0.000024
     7:58:00: Balanced after 17 trials
     7:58:00: Tank D is filling at 2.11 m
     7:58:00: Tank E is emptying at 2.69 m
     7:58:00: CV 1196 changed from temporarily closed to open
     7:58:00: CV 1783 changed from open to temporarily closed
   
     7:58:05: Balancing the network:
              Trial  1: relative flow change = 0.000002
              CV 1196 switched from open to closed
              Trial  2: relative flow change = 0.067462
              Trial  3: relative flow change = 0.000028
     7:58:05: Balanced after 3 trials
     7:58:05: Tank D is emptying at 2.11 m
     7:58:05: CV 1196 changed from open to temporarily closed
   
     8:00:00: Balancing the network:
              Trial  1: relative flow change = 0.012778
              Trial  2: relative flow change = 0.000030
              CV 1196 switched from closed to open
              CV 1783 switched from closed to open
              Trial  3: relative flow change = 0.958221
              Trial  4: relative flow change = 1.079250
              CV 1154 switched from open to closed
              CV 1196 switched from open to closed
              CV 1210 switched from closed to open
              Trial  5: relative flow change = 0.995673
              Trial  6: relative flow change = 0.807189
              CV 1154 switched from closed to open
              Trial  7: relative flow change = 0.627483
              Trial  8: relative flow change = 0.361541
              CV 1196 switched from closed to open
              CV 1210 switched from open to closed
              Trial  9: relative flow change = 0.200794
              Trial 10: relative flow change = 0.101578
              Trial 11: relative flow change = 0.046130
              Trial 12: relative flow change = 0.019732
              Trial 13: relative flow change = 0.006419
              Trial 14: relative flow change = 0.000937
     8:00:00: Balanced after 14 trials
     8:00:00: Tank D is filling at 2.11 m
     8:00:00: Tank E is filling at 2.69 m
     8:00:00: CV 1196 changed from temporarily closed to open
     8:00:00: CV 1783 changed from temporarily closed to open
   
     8:01:14: Balancing the network:
              Trial  1: relative flow change = 0.257465
              Trial  2: relative flow change = 0.028259
              CV 1783 switched from open to closed
              Trial  3: relative flow change = 0.017807
              Trial  4: relative flow change = 0.000003
     8:01:14: Balanced after 4 trials
     8:01:14: Tank A is emptying at 3.30 m
     8:01:14: Tank B is filling at 2.88 m
     8:01:14: Tank E is emptying at 2.69 m
     8:01:14: CV 1783 changed from open to temporarily closed
     8:01:14: Pump 4B changed from closed to open
   
     8:01:33: Balancing the network:
              Trial  1: relative flow change = 0.000061
              CV 1196 switched from open to closed
              CV 1783 switched from closed to open
              Trial  2: relative flow change = 0.956687
              Trial  3: relative flow change = 1.061794
              Trial  4: relative flow change = 0.954912
              Trial  5: relative flow change = 0.783463
              Trial  6: relative flow change = 0.563480
              Trial  7: relative flow change = 0.349796
              Trial  8: relative flow change = 0.191494
              Trial  9: relative flow change = 0.096043
              Trial 10: relative flow change = 0.045159
              Trial 11: relative flow change = 0.019320
              Trial 12: relative flow change = 0.006284
              Trial 13: relative flow change = 0.000918
     8:01:33: Balanced after 13 trials
     8:01:33: Tank D is emptying at 2.11 m
     8:01:33: Tank E is filling at 2.69 m
     8:01:33: CV 1196 changed from open to temporarily closed
     8:01:33: CV 1783 changed from temporarily closed to open
   
     8:01:44: Balancing the network:
              Trial  1: relative flow change = 0.000051
              CV 1196 switched from closed to open
              CV 1783 switched from open to closed
              Trial  2: relative flow change = 0.271305
              Trial  3: relative flow change = 0.200259
              CV 1154 switched from open to closed
              CV 1196 switched from open to closed
              CV 1210 switched from closed to open
              Trial  4: relative flow change = 0.138763
              Trial  5: relative flow change = 0.000116
              CV 1154 switched from closed to open
              Trial  6: relative flow change = 0.423292
              Trial  7: relative flow change = 0.389753
              CV 1154 switched from open to closed
              CV 1210 switched from open to closed
              Trial  8: relative flow change = 0.236279
              Trial  9: relative flow change = 0.000197
              CV 1154 switched from closed to open
              CV 1210 switched from closed to open
              Trial 10: relative flow change = 0.378684
              Trial 11: relative flow change = 0.337244
              Trial 12: relative flow change = 0.087629
              Trial 13: relative flow change = 0.006707
              Trial 14: relative flow change = 0.000386
              CV 1196 switched from closed to open
              CV 1210 switched from open to closed
              Trial 15: relative flow change = 0.042247
              Trial 16: relative flow change = 0.003581
              Trial 17: relative flow change = 0.000024
     8:01:44: Balanced after 17 trials
     8:01:44: Tank D is filling at 2.11 m
     8:01:44: Tank E is emptying at 2.69 m
     8:01:44: CV 1196 changed from temporarily closed to open
     8:01:44: CV 1783 changed from open to temporarily closed
   
     8:01:54: Balancing the network:
              Trial  1: relative flow change = 0.000032
              CV 1196 switched from open to closed
              CV 1783 switched from closed to open
              Trial  2: relative flow change = 0.956687
              Trial  3: relative flow change = 1.061796
              Trial  4: relative flow change = 0.954914
              Trial  5: relative flow change = 0.783467
              Trial  6: relative flow change = 0.563485
              Trial  7: relative flow change = 0.349799
              Trial  8: relative flow change = 0.191496
              Trial  9: relative flow change = 0.096044
              Trial 10: relative flow change = 0.045160
              Trial 11: relative flow change = 0.019320
              Trial 12: relative flow change = 0.006284
              Trial 13: relative flow change = 0.000918
     8:01:54: Balanced after 13 trials
     8:01:54: Tank D is emptying at 2.11 m
     8:01:54: Tank E is filling at 2.69 m
     8:01:54: CV 1196 changed from open to temporarily closed
     8:01:54: CV 1783 changed from temporarily closed to open
   
     8:02:00: Balancing the network:
              Trial  1: relative flow change = 0.000037
              CV 1196 switched from closed to open
              CV 1783 switched from open to closed
              Trial  2: relative flow change = 0.271305
              Trial  3: relative flow change = 0.200258
              CV 1154 switched from open to closed
              CV 1196 switched from open to closed
              CV 1210 switched from closed to open
              Trial  4: relative flow change = 0.138763
              Trial  5: relative flow change = 0.000116
              CV 1154 switched from closed to open
              Trial  6: relative flow change = 0.423291
              Trial  7: relative flow change = 0.389753
              CV 1154 switched from open to closed
              CV 1210 switched from open to closed
              Trial  8: relative flow change = 0.236278
              Trial  9: relative flow change = 0.000197
              CV 1154 switched from closed to open
              CV 1210 switched from closed to open
              Trial 10: relative flow change = 0.378684
              Trial 11: relative flow change = 0.337244
              Trial 12: relative flow change = 0.087628
              Trial 13: relative flow change = 0.006707
              Trial 14: relative flow change = 0.000386
              CV 1196 switched from closed to open
              CV 1210 switched from open to closed
              Trial 15: relative flow change = 0.042247
              Trial 16: relative flow change = 0.003580
              Trial 17: relative flow change = 0.000024
     8:02:00: Balanced after 17 trials
     8:02:00: Tank D is filling at 2.11 m
     8:02:00: Tank E is emptying at 2.69 m
     8:02:00: CV 1196 changed from temporarily closed to open
     8:02:00: CV 1783 changed from open to temporarily closed
   
     8:02:06: Balancing the network:
              Trial  1: relative flow change = 0.000019
              CV 1196 switched from open to closed
              Trial  2: relative flow change = 0.063450
              Trial  3: relative flow change = 0.000027
     8:02:06: Balanced after 3 trials
     8:02:06: Tank D is emptying at 2.11 m
     8:02:06: CV 1196 changed from open to temporarily closed
   
     9:00:00: Balancing the network:
              Trial  1: relative flow change = 0.013292
              Trial  2: relative flow change = 0.000085
              CV 1196 switched from closed to open
              CV 1783 switched from closed to open
              Trial  3: relative flow change = 0.953232
              Trial  4: relative flow change = 1.067751
              CV 1154 switched from open to closed
              CV 1196 switched from open to closed
              CV 1210 switched from closed to open
              Trial  5: relative flow change = 0.974969
              Trial  6: relative flow change = 0.776706
              CV 1154 switched from closed to open
              Trial  7: relative flow change = 0.593431
              Trial  8: relative flow change = 0.334147
              CV 1196 switched from closed to open
              CV 1210 switched from open to closed
              Trial  9: relative flow change = 0.182583
              Trial 10: relative flow change = 0.091628
              Trial 11: relative flow change = 0.041341
              Trial 12: relative flow change = 0.017557
              Trial 13: relative flow change = 0.005606
              Trial 14: relative flow change = 0.000780
     9:00:00: Balanced after 14 trials
     9:00:00: Tank D is filling at 2.02 m
     9:00:00: Tank E is filling at 2.62 m
     9:00:00: CV 1196 changed from temporarily closed to open
     9:00:00: CV 1783 changed from temporarily closed to open
   
     9:27:36: Balancing the network:
              Trial  1: relative flow change = 0.238648
              Trial  2: relative flow change = 0.001252
              Pipe 1740 switched from open to closed
              Trial  3: relative flow change = 0.044411
              Trial  4: relative flow change = 0.000013
     9:27:36: Balanced after 4 trials
     9:27:36: Tank C is closed at 2.00 m
     9:27:36: Tank A is filling at 3.24 m
     9:27:36: Tank B is emptying at 3.50 m
     9:27:36: Pipe 1740 changed from open to temporarily closed
     9:27:36: Pump 4B changed from open to closed
   
     9:33:10: Balancing the network:
              Trial  1: relative flow change = 0.000176
              CV 1783 switched from open to closed
              Trial  2: relative flow change = 0.018263
              Trial  3: relative flow change = 0.000000
     9:33:10: Balanced after 3 trials
     9:33:10: Tank E is emptying at 2.69 m
     9:33:10: CV 1783 changed from open to temporarily closed
   
     9:43:17: Balancing the network:
              Trial  1: relative flow change = 0.000307
              CV 1196 switched from open to closed
              CV 1783 switched from closed to open
              Trial  2: relative flow change = 0.961129
              Trial  3: relative flow change = 1.071839
              Trial  4: relative flow change = 0.972737
              Trial  5: relative flow change = 0.809932
              Trial  6: relative flow change = 0.593818
              Trial  7: relative flow change = 0.375696
              Trial  8: relative flow change = 0.208612
              Trial  9: relative flow change = 0.105500
              Trial 10: relative flow change = 0.049762
              Trial 11: relative flow change = 0.021222
              Trial 12: relative flow change = 0.006785
              Trial 13: relative flow change = 0.000945
     9:43:17: Balanced after 13 trials
     9:43:17: Tank D is emptying at 2.11 m
     9:43:17: Tank E is filling at 2.68 m
     9:43:17: CV 1196 changed from open to temporarily closed
     9:43:17: CV 1783 changed from temporarily closed to open
   
     9:49:18: Balancing the network:
              Trial  1: relative flow change = 0.000279
              CV 1196 switched from closed to open
              CV 1783 switched from open to closed
              Trial  2: relative flow change = 0.298218
              Trial  3: relative flow change = 0.224765
              CV 1154 switched from open to closed
              CV 1196 switched from open to closed
              CV 1210 switched from closed to open
              Trial  4: relative flow change = 0.158917
              Trial  5: relative flow change = 0.000001
              CV 1154 switched from closed to open
              Trial  6: relative flow change = 0.460344
              Trial  7: relative flow change = 0.438928
              CV 1154 switched from open to closed
              CV 1210 switched from open to closed
              Trial  8: relative flow change = 0.274280
              Trial  9: relative flow change = 0.000000
              CV 1154 switched from closed to open
              CV 1210 switched from closed to open
              Trial 10: relative flow change = 0.412544
              Trial 11: relative flow change = 0.379109
              Trial 12: relative flow change = 0.100018
              Trial 13: relative flow change = 0.007758
              Trial 14: relative flow change = 0.000406
              CV 1196 switched from closed to open
              CV 1210 switched from open to closed
              Trial 15: relative flow change = 0.047676
              Trial 16: relative flow change = 0.004027
              Trial 17: relative flow change = 0.000026
     9:49:18: Balanced after 17 trials
     9:49:18: Tank D is filling at 2.09 m
     9:49:18: Tank E is emptying at 2.69 m
     9:49:18: CV 1196 changed from temporarily closed to open
     9:49:18: CV 1783 changed from open to temporarily closed
   
     9:55:09: Balancing the network:
              Trial  1: relative flow change = 0.000177
              CV 1196 switched from open to closed
              CV 1783 switched from closed to open
              Trial  2: relative flow change = 0.961144
              Trial  3: relative flow change = 1.071868
              Trial  4: relative flow change = 0.972790
              Trial  5: relative flow change = 0.810011
              Trial  6: relative flow change = 0.593910
              Trial  7: relative flow change = 0.375776
              Trial  8: relative flow change = 0.208666
              Trial  9: relative flow change = 0.105530
              Trial 10: relative flow change = 0.049777
              Trial 11: relative flow change = 0.021228
              Trial 12: relative flow change = 0.006786
              Trial 13: relative flow change = 0.000945
     9:55:09: Balanced after 13 trials
     9:55:09: Tank D is emptying at 2.11 m
     9:55:09: Tank E is filling at 2.68 m
     9:55:09: CV 1196 changed from open to temporarily closed
     9:55:09: CV 1783 changed from temporarily closed to open
   
     9:58:32: Balancing the network:
              Trial  1: relative flow change = 0.000165
              CV 1196 switched from closed to open
              Pipe 1879 switched from open to closed
              Pipe p2 switched from open to closed
              Trial  2: relative flow change = 2.217386
              Trial  3: relative flow change = 0.835325
              CV 1154 switched from open to closed
              CV 1196 switched from open to closed
              CV 1210 switched from closed to open
              Trial  4: relative flow change = 0.977486
              Trial  5: relative flow change = 0.000042
              CV 1154 switched from closed to open
              Trial  6: relative flow change = 0.858089
              Trial  7: relative flow change = 1.312507
              Pipe 788 switched from open to closed
              CV 1154 switched from open to closed
              CV 1210 switched from open to closed
              Trial  8: relative flow change = 2.051916
              Trial  9: relative flow change = 0.005940
              Pipe 788 switched from closed to open
              CV 1210 switched from closed to open
              CV 1653 switched from open to closed
              Pipe 1740 switched from closed to open
              Pump 5C switched from open to closed
              Pump 6D switched from open to closed
              Trial 10: relative flow change = 0.530909
              Trial 11: relative flow change = 0.000015
              Pump 5C switched from closed to open
              Pump 6D switched from closed to open
              Trial 12: relative flow change = 0.000014
              CV 1154 switched from closed to open
              CV 1653 switched from closed to open
              Trial 13: relative flow change = 0.884703
              Trial 14: relative flow change = 1.290216
              Trial 15: relative flow change = 0.448568
              Trial 16: relative flow change = 0.040615
              Trial 17: relative flow change = 0.001543
              Trial 18: relative flow change = 0.000002
              CV 1196 switched from closed to open
              CV 1210 switched from open to closed
              Pipe 1740 switched from open to closed
              Trial 19: relative flow change = 0.409021
              Trial 20: relative flow change = 0.018748
              Trial 21: relative flow change = 0.000123
     9:58:32: Balanced after 21 trials
     9:58:32: Tank A is emptying at 3.37 m
     9:58:32: Tank D is filling at 2.10 m
     9:58:32: CV 1196 changed from temporarily closed to open
     9:58:32: Pipe 1879 changed from open to temporarily closed
     9:58:32: Pipe p2 changed from open to temporarily closed
   
     9:58:38: Balancing the network:
              Trial  1: relative flow change = 0.000005
              CV 1783 switched from open to closed
              Pipe 1879 switched from closed to open
              Pipe p2 switched from closed to open
              Trial  2: relative flow change = 0.960166
              Trial  3: relative flow change = 1.638047
              Trial  4: relative flow change = 0.667183
              Trial  5: relative flow change = 0.056234
              Trial  6: relative flow change = 0.005429
              Trial  7: relative flow change = 0.000005
     9:58:38: Balanced after 7 trials
     9:58:38: Tank A is filling at 3.37 m
     9:58:38: Tank E is emptying at 2.69 m
     9:58:38: CV 1783 changed from open to temporarily closed
     9:58:38: Pipe 1879 changed from temporarily closed to open
     9:58:38: Pipe p2 changed from temporarily closed to open
   
     9:58:43: Balancing the network:
              Trial  1: relative flow change = 0.000003
              Pipe 1879 switched from open to closed
              Pipe p2 switched from open to closed
              Trial  2: relative flow change = 3.893966
              Trial  3: relative flow change = 0.000010
     9:58:43: Balanced after 3 trials
     9:58:43: Tank A is emptying at 3.37 m
     9:58:43: Pipe 1879 changed from open to temporarily closed
     9:58:43: Pipe p2 changed from open to temporarily closed
   
    10:00:00: Balancing the network:
              Trial  1: relative flow change = 0.139330
              Trial  2: relative flow change = 0.000069
              CV 1783 switched from closed to open
              Pipe 1879 switched from closed to open
              Pipe p2 switched from closed to open
              Trial  3: relative flow change = 0.989452
              Trial  4: relative flow change = 1.251659
              Trial  5: relative flow change = 1.054701
              Trial  6: relative flow change = 0.756293
              Trial  7: relative flow change = 0.515781
              Trial  8: relative flow change = 0.309208
              Trial  9: relative flow change = 0.165475
              Trial 10: relative flow change = 0.081696
              Trial 11: relative flow change = 0.037735
              Trial 12: relative flow change = 0.015414
              Trial 13: relative flow change = 0.004326
              Trial 14: relative flow change = 0.000433
    10:00:00: Balanced after 14 trials
    10:00:00: Tank A is filling at 3.37 m
    10:00:00: Tank E is filling at 2.69 m
    10:00:00: CV 1783 changed from temporarily closed to open
    10:00:00: Pipe 1879 changed from temporarily closed to open
    10:00:00: Pipe p2 changed from temporarily closed to open
   
    10:00:59: Balancing the network:
              Trial  1: relative flow change = 0.256920
              Trial  2: relative flow change = 0.021801
              Pipe 1740 switched from closed to open
              CV 1783 switched from open to closed
              Trial  3: relative flow change = 0.026477
              Trial  4: relative flow change = 0.000023
    10:00:59: Balanced after 4 trials
    10:00:59: Tank C is emptying at 2.00 m
    10:00:59: Tank A is emptying at 3.37 m
    10:00:59: Tank B is filling at 3.36 m
    10:00:59: Tank E is emptying at 2.69 m
    10:00:59: Pipe 1740 changed from temporarily closed to open
    10:00:59: CV 1783 changed from open to temporarily closed
    10:00:59: Pump 5C changed from open to closed
    10:00:59: Pump 4B changed from closed to open
   
    10:02:58: Balancing the network:
              Trial  1: relative flow change = 0.000312
              CV 1196 switched from open to closed
              CV 1783 switched from closed to open
              Trial  2: relative flow change = 0.948300
              Trial  3: relative flow change = 1.041642
              Trial  4: relative flow change = 0.920113
              Trial  5: relative flow change = 0.733947
              Trial  6: relative flow change = 0.509688
              Trial  7: relative flow change = 0.306120
              Trial  8: relative flow change = 0.163554
              Trial  9: relative flow change = 0.080671
              Trial 10: relative flow change = 0.037244
              Trial 11: relative flow change = 0.015211
              Trial 12: relative flow change = 0.004269
              Trial 13: relative flow change = 0.000428
    10:02:58: Balanced after 13 trials
    10:02:58: Tank D is emptying at 2.11 m
    10:02:58: Tank E is filling at 2.69 m
    10:02:58: CV 1196 changed from open to temporarily closed
    10:02:58: CV 1783 changed from temporarily closed to open
   
    10:04:47: Balancing the network:
              Trial  1: relative flow change = 0.000236
              CV 1196 switched from closed to open
              CV 1783 switched from open to closed
              Trial  2: relative flow change = 0.256294
              Trial  3: relative flow change = 0.186409
              CV 1154 switched from open to closed
              CV 1196 switched from open to closed
              CV 1210 switched from closed to open
              Trial  4: relative flow change = 0.134288
              Trial  5: relative flow change = 0.000001
              CV 1154 switched from closed to open
              Trial  6: relative flow change = 0.427639
              Trial  7: relative flow change = 0.395125
              CV 1154 switched from open to closed
              CV 1210 switched from open to closed
              Trial  8: relative flow change = 0.237621
              Trial  9: relative flow change = 0.000001
              CV 1154 switched from closed to open
              CV 1210 switched from closed to open
              Trial 10: relative flow change = 0.372374
              Trial 11: relative flow change = 0.330086
              Trial 12: relative flow change = 0.082195
              Trial 13: relative flow change = 0.005771
              Trial 14: relative flow change = 0.000355
              CV 1196 switched from closed to open
              CV 1210 switched from open to closed
              Trial 15: relative flow change = 0.041217
              Trial 16: relative flow change = 0.003347
              Trial 17: relative flow change = 0.000020
    10:04:47: Balanced after 17 trials
    10:04:47: Tank D is filling at 2.10 m
    10:04:47: Tank E is emptying at 2.69 m
    10:04:47: CV 1196 changed from temporarily closed to open
    10:04:47: CV 1783 changed from open to temporarily closed
   
    10:07:19: Balancing the network:
              Trial  1: relative flow change = 0.000397
              CV 1196 switched from open to closed
              CV 1783 switched from closed to open
              Trial  2: relative flow change = 0.948310
              Trial  3: relative flow change = 1.041665
              Trial  4: relative flow change = 0.920153
              Trial  5: relative flow change = 0.734002
              Trial  6: relative flow change = 0.509746
              Trial  7: relative flow change = 0.306166
              Trial  8: relative flow change = 0.163582
              Trial  9: relative flow change = 0.080686
              Trial 10: relative flow change = 0.037252
              Trial 11: relative flow change = 0.015214
              Trial 12: relative flow change = 0.004269
              Trial 13: relative flow change = 0.000428
    10:07:19: Balanced after 13 trials
    10:07:19: Tank D is emptying at 2.11 m
    10:07:19: Tank E is filling at 2.69 m
    10:07:19: CV 1196 changed from open to temporarily closed
    10:07:19: CV 1783 changed from temporarily closed to open
   
    10:09:38: Balancing the network:
              Trial  1: relative flow change = 0.000298
              CV 1196 switched from closed to open
              CV 1783 switched from open to closed
              Trial  2: relative flow change = 0.256322
              Trial  3: relative flow change = 0.186432
              CV 1154 switched from open to closed
              CV 1196 switched from open to closed
              CV 1210 switched from closed to open
              Trial  4: relative flow change = 0.134307
              Trial  5: relative flow change = 0.000001
              CV 1154 switched from closed to open
              Trial  6: relative flow change = 0.427675
              Trial  7: relative flow change = 0.395172
              CV 1154 switched from open to closed
              CV 1210 switched from open to closed
              Trial  8: relative flow change = 0.237652
              Trial  9: relative flow change = 0.000000
              CV 1154 switched from closed to open
              CV 1210 switched from closed to open
              Trial 10: relative flow change = 0.372408
              Trial 11: relative flow change = 0.330126
              Trial 12: relative flow change = 0.082203
              Trial 13: relative flow change = 0.005771
              Trial 14: relative flow change = 0.000356
              CV 1196 switched from closed to open
              CV 1210 switched from open to closed
              Trial 15: relative flow change = 0.041223
              Trial 16: relative flow change = 0.003347
              Trial 17: relative flow change = 0.000020
    10:09:38: Balanced after 17 trials
    10:09:38: Tank D is filling at 2.10 m
    10:09:38: Tank E is emptying at 2.69 m
    10:09:38: CV 1196 changed from temporarily closed to open
    10:09:38: CV 1783 changed from open to temporarily closed
   
    10:12:52: Balancing the network:
              Trial  1: relative flow change = 0.000504
              CV 1196 switched from open to closed
              CV 1783 switched from closed to open
              Trial  2: relative flow change = 0.948323
              Trial  3: relative flow change = 1.041695
              Trial  4: relative flow change = 0.920204
              Trial  5: relative flow change = 0.734072
              Trial  6: relative flow change = 0.509820
              Trial  7: relative flow change = 0.306223
              Trial  8: relative flow change = 0.163618
              Trial  9: relative flow change = 0.080705
              Trial 10: relative flow change = 0.037261
              Trial 11: relative flow change = 0.015218
              Trial 12: relative flow change = 0.004271
              Trial 13: relative flow change = 0.000428
    10:12:52: Balanced after 13 trials
    10:12:52: Tank D is emptying at 2.11 m
    10:12:52: Tank E is filling at 2.68 m
    10:12:52: CV 1196 changed from open to temporarily closed
    10:12:52: CV 1783 changed from temporarily closed to open
   
    10:15:50: Balancing the network:
              Trial  1: relative flow change = 0.000378
              CV 1196 switched from closed to open
              CV 1783 switched from open to closed
              Trial  2: relative flow change = 0.256357
              Trial  3: relative flow change = 0.186463
              CV 1154 switched from open to closed
              CV 1196 switched from open to closed
              CV 1210 switched from closed to open
              Trial  4: relative flow change = 0.134333
              Trial  5: relative flow change = 0.000000
              CV 1154 switched from closed to open
              Trial  6: relative flow change = 0.427722
              Trial  7: relative flow change = 0.395233
              CV 1154 switched from open to closed
              CV 1210 switched from open to closed
              Trial  8: relative flow change = 0.237695
              Trial  9: relative flow change = 0.000000
              CV 1154 switched from closed to open
              CV 1210 switched from closed to open
              Trial 10: relative flow change = 0.372451
              Trial 11: relative flow change = 0.330178
              Trial 12: relative flow change = 0.082213
              Trial 13: relative flow change = 0.005771
              Trial 14: relative flow change = 0.000356
              CV 1196 switched from closed to open
              CV 1210 switched from open to closed
              Trial 15: relative flow change = 0.041232
              Trial 16: relative flow change = 0.003348
              Trial 17: relative flow change = 0.000020
    10:15:50: Balanced after 17 trials
    10:15:50: Tank D is filling at 2.10 m
    10:15:50: Tank E is emptying at 2.69 m
    10:15:50: CV 1196 changed from temporarily closed to open
    10:15:50: CV 1783 changed from open to temporarily closed
   
    10:19:59: Balancing the network:
              Trial  1: relative flow change = 0.000643
              CV 1196 switched from open to closed
              CV 1783 switched from closed to open
              Trial  2: relative flow change = 0.948340
              Trial  3: relative flow change = 1.041734
              Trial  4: relative flow change = 0.920269
              Trial  5: relative flow change = 0.734162
              Trial  6: relative flow change = 0.509914
              Trial  7: relative flow change = 0.306298
              Trial  8: relative flow change = 0.163664
              Trial  9: relative flow change = 0.080730
              Trial 10: relative flow change = 0.037273
              Trial 11: relative flow change = 0.015222
              Trial 12: relative flow change = 0.004272
              Trial 13: relative flow change = 0.000428
    10:19:59: Balanced after 13 trials
    10:19:59: Tank D is emptying at 2.11 m
    10:19:59: Tank E is filling at 2.68 m
    10:19:59: CV 1196 changed from open to temporarily closed
    10:19:59: CV 1783 changed from temporarily closed to open
   
    10:23:47: Balancing the network:
              Trial  1: relative flow change = 0.000478
              CV 1196 switched from closed to open
              CV 1783 switched from open to closed
              Trial  2: relative flow change = 0.256403
              Trial  3: relative flow change = 0.186502
              CV 1154 switched from open to closed
              CV 1196 switched from open to closed
              CV 1210 switched from closed to open
              Trial  4: relative flow change = 0.134367
              Trial  5: relative flow change = 0.000001
              CV 1154 switched from closed to open
              Trial  6: relative flow change = 0.427782
              Trial  7: relative flow change = 0.395313
              CV 1154 switched from open to closed
              CV 1210 switched from open to closed
              Trial  8: relative flow change = 0.237749
              Trial  9: relative flow change = 0.000000
              CV 1154 switched from closed to open
              CV 1210 switched from closed to open
              Trial 10: relative flow change = 0.372508
              Trial 11: relative flow change = 0.330245
              Trial 12: relative flow change = 0.082227
              Trial 13: relative flow change = 0.005771
              Trial 14: relative flow change = 0.000357
              CV 1196 switched from closed to open
              CV 1210 switched from open to closed
              Trial 15: relative flow change = 0.041242
              Trial 16: relative flow change = 0.003348
              Trial 17: relative flow change = 0.000020
    10:23:47: Balanced after 17 trials
    10:23:47: Tank D is filling at 2.10 m
    10:23:47: Tank E is emptying at 2.69 m
    10:23:47: CV 1196 changed from temporarily closed to open
    10:23:47: CV 1783 changed from open to temporarily closed
   
    10:29:06: Balancing the network:
              Trial  1: relative flow change = 0.000817
              CV 1196 switched from open to closed
              CV 1783 switched from closed to open
              Trial  2: relative flow change = 0.948361
              Trial  3: relative flow change = 1.041782
              Trial  4: relative flow change = 0.920352
              Trial  5: relative flow change = 0.734277
              Trial  6: relative flow change = 0.510034
              Trial  7: relative flow change = 0.306392
              Trial  8: relative flow change = 0.163722
              Trial  9: relative flow change = 0.080761
              Trial 10: relative flow change = 0.037288
              Trial 11: relative flow change = 0.015229
              Trial 12: relative flow change = 0.004274
              Trial 13: relative flow change = 0.000429
    10:29:06: Balanced after 13 trials
    10:29:06: Tank D is emptying at 2.11 m
    10:29:06: Tank E is filling at 2.68 m
    10:29:06: CV 1196 changed from open to temporarily closed
    10:29:06: CV 1783 changed from temporarily closed to open
   
    10:33:58: Balancing the network:
              Trial  1: relative flow change = 0.000603
              CV 1196 switched from closed to open
              CV 1783 switched from open to closed
              Trial  2: relative flow change = 0.256463
              Trial  3: relative flow change = 0.186553
              CV 1154 switched from open to closed
              CV 1196 switched from open to closed
              CV 1210 switched from closed to open
              Trial  4: relative flow change = 0.134410
              Trial  5: relative flow change = 0.000001
              CV 1154 switched from closed to open
              Trial  6: relative flow change = 0.427860
              Trial  7: relative flow change = 0.395416
              CV 1154 switched from open to closed
              CV 1210 switched from open to closed
              Trial  8: relative flow change = 0.237820
              Trial  9: relative flow change = 0.000001
              CV 1154 switched from closed to open
              CV 1210 switched from closed to open
              Trial 10: relative flow change = 0.372582
              Trial 11: relative flow change = 0.330332
              Trial 12: relative flow change = 0.082245
              Trial 13: relative flow change = 0.005772
              Trial 14: relative flow change = 0.000357
              CV 1196 switched from closed to open
              CV 1210 switched from open to closed
              Trial 15: relative flow change = 0.041256
              Trial 16: relative flow change = 0.003349
              Trial 17: relative flow change = 0.000020
    10:33:58: Balanced after 17 trials
    10:33:58: Tank D is filling at 2.09 m
    10:33:58: Tank E is emptying at 2.69 m
    10:33:58: CV 1196 changed from temporarily closed to open
    10:33:58: CV 1783 changed from open to temporarily closed
   
    10:40:46: Balancing the network:
              Trial  1: relative flow change = 0.001035
              Trial  2: relative flow change = 0.000001
              CV 1196 switched from open to closed
              CV 1783 switched from closed to open
              Trial  3: relative flow change = 0.948388
              Trial  4: relative flow change = 1.041845
              Trial  5: relative flow change = 0.920457
              Trial  6: relative flow change = 0.734423
              Trial  7: relative flow change = 0.510187
              Trial  8: relative flow change = 0.306512
              Trial  9: relative flow change = 0.163797
              Trial 10: relative flow change = 0.080801
              Trial 11: relative flow change = 0.037307
              Trial 12: relative flow change = 0.015237
              Trial 13: relative flow change = 0.004276
              Trial 14: relative flow change = 0.000428
    10:40:46: Balanced after 14 trials
    10:40:46: Tank D is emptying at 2.11 m
    10:40:46: Tank E is filling at 2.68 m
    10:40:46: CV 1196 changed from open to temporarily closed
    10:40:46: CV 1783 changed from temporarily closed to open
   
    10:47:00: Balancing the network:
              Trial  1: relative flow change = 0.000758
              CV 1196 switched from closed to open
              CV 1783 switched from open to closed
              Trial  2: relative flow change = 0.256540
              Trial  3: relative flow change = 0.186619
              CV 1154 switched from open to closed
              CV 1196 switched from open to closed
              CV 1210 switched from closed to open
              Trial  4: relative flow change = 0.134466
              Trial  5: relative flow change = 0.000001
              CV 1154 switched from closed to open
              Trial  6: relative flow change = 0.427962
              Trial  7: relative flow change = 0.395550
[...]
              CV 1783 switched from open to closed
              Pipe 1879 switched from closed to open
              Pipe p2 switched from closed to open
              Trial  2: relative flow change = 0.177629
              Trial  3: relative flow change = 0.008228
              Trial  4: relative flow change = 0.000058
    23:09:37: Balanced after 4 trials
    23:09:37: Tank A is filling at 3.37 m
    23:09:37: Tank D is emptying at 2.11 m
    23:09:37: Tank E is emptying at 2.69 m
    23:09:37: CV 1196 changed from open to temporarily closed
    23:09:37: CV 1783 changed from open to temporarily closed
    23:09:37: Pipe 1879 changed from temporarily closed to open
    23:09:37: Pipe p2 changed from temporarily closed to open
   
    23:10:25: Balancing the network:
              Trial  1: relative flow change = 0.000147
              CV 1196 switched from closed to open
              CV 1783 switched from closed to open
              Pipe 1879 switched from open to closed
              Pipe p2 switched from open to closed
              Trial  2: relative flow change = 0.976760
              Trial  3: relative flow change = 1.117339
              Pipe 788 switched from open to closed
              CV 1154 switched from open to closed
              CV 1196 switched from open to closed
              CV 1210 switched from closed to open
              Trial  4: relative flow change = 1.080920
              Trial  5: relative flow change = 0.931721
              Pipe 788 switched from closed to open
              CV 1653 switched from open to closed
              Pump 5C switched from open to closed
              Trial  6: relative flow change = 0.779573
              Trial  7: relative flow change = 0.533218
              CV 1154 switched from closed to open
              Pump 5C switched from closed to open
              Trial  8: relative flow change = 0.441442
              Trial  9: relative flow change = 0.201443
              CV 1196 switched from closed to open
              CV 1210 switched from open to closed
              CV 1653 switched from closed to open
              Trial 10: relative flow change = 0.241647
              Trial 11: relative flow change = 0.163350
              Trial 12: relative flow change = 0.042828
              Trial 13: relative flow change = 0.006431
              Trial 14: relative flow change = 0.000581
    23:10:25: Balanced after 14 trials
    23:10:25: Tank A is emptying at 3.37 m
    23:10:25: Tank D is filling at 2.11 m
    23:10:25: Tank E is filling at 2.69 m
    23:10:25: CV 1196 changed from temporarily closed to open
    23:10:25: CV 1783 changed from temporarily closed to open
    23:10:25: Pipe 1879 changed from open to temporarily closed
    23:10:25: Pipe p2 changed from open to temporarily closed
   
    23:10:34: Balancing the network:
              Trial  1: relative flow change = 0.000017
              CV 1783 switched from open to closed
              Pipe 1879 switched from closed to open
              Pipe p2 switched from closed to open
              Trial  2: relative flow change = 0.098464
              Trial  3: relative flow change = 0.007715
              Trial  4: relative flow change = 0.000055
    23:10:34: Balanced after 4 trials
    23:10:34: Tank E is emptying at 2.69 m
    23:10:34: CV 1783 changed from open to temporarily closed
    23:10:34: Pipe 1879 changed from temporarily closed to open
    23:10:34: Pipe p2 changed from temporarily closed to open
   
    23:10:37: Balancing the network:
              Trial  1: relative flow change = 0.000010
              CV 1196 switched from open to closed
              Trial  2: relative flow change = 0.072444
              Trial  3: relative flow change = 0.000035
    23:10:37: Balanced after 3 trials
    23:10:37: Tank A is filling at 3.37 m
    23:10:37: Tank D is emptying at 2.11 m
    23:10:37: CV 1196 changed from open to temporarily closed
   
    23:11:00: Balancing the network:
              Trial  1: relative flow change = 0.000070
              CV 1196 switched from closed to open
              CV 1783 switched from closed to open
              Pipe 1879 switched from open to closed
              Pipe p2 switched from open to closed
              Trial  2: relative flow change = 0.976765
              Trial  3: relative flow change = 1.117342
              Pipe 788 switched from open to closed
              CV 1154 switched from open to closed
              CV 1196 switched from open to closed
              CV 1210 switched from closed to open
              Trial  4: relative flow change = 1.080925
              Trial  5: relative flow change = 0.931730
              Pipe 788 switched from closed to open
              CV 1653 switched from open to closed
              Pump 5C switched from open to closed
              Trial  6: relative flow change = 0.779586
              Trial  7: relative flow change = 0.533232
              CV 1154 switched from closed to open
              Pump 5C switched from closed to open
              Trial  8: relative flow change = 0.441454
              Trial  9: relative flow change = 0.201449
              CV 1196 switched from closed to open
              CV 1210 switched from open to closed
              CV 1653 switched from closed to open
              Trial 10: relative flow change = 0.241642
              Trial 11: relative flow change = 0.163344
              Trial 12: relative flow change = 0.042825
              Trial 13: relative flow change = 0.006431
              Trial 14: relative flow change = 0.000582
    23:11:00: Balanced after 14 trials
    23:11:00: Tank A is emptying at 3.37 m
    23:11:00: Tank D is filling at 2.11 m
    23:11:00: Tank E is filling at 2.69 m
    23:11:00: CV 1196 changed from temporarily closed to open
    23:11:00: CV 1783 changed from temporarily closed to open
    23:11:00: Pipe 1879 changed from open to temporarily closed
    23:11:00: Pipe p2 changed from open to temporarily closed
   
    23:11:05: Balancing the network:
              Trial  1: relative flow change = 0.000012
              CV 1196 switched from open to closed
              CV 1783 switched from open to closed
              Pipe 1879 switched from closed to open
              Pipe p2 switched from closed to open
              Trial  2: relative flow change = 0.177855
              Trial  3: relative flow change = 0.008351
              Trial  4: relative flow change = 0.000060
    23:11:05: Balanced after 4 trials
    23:11:05: Tank A is filling at 3.37 m
    23:11:05: Tank D is emptying at 2.11 m
    23:11:05: Tank E is emptying at 2.69 m
    23:11:05: CV 1196 changed from open to temporarily closed
    23:11:05: CV 1783 changed from open to temporarily closed
    23:11:05: Pipe 1879 changed from temporarily closed to open
    23:11:05: Pipe p2 changed from temporarily closed to open
   
    23:11:18: Balancing the network:
              Trial  1: relative flow change = 0.000040
              Pipe 1879 switched from open to closed
              Pipe p2 switched from open to closed
              Trial  2: relative flow change = 0.089668
              Trial  3: relative flow change = 0.011843
              Trial  4: relative flow change = 0.000023
    23:11:18: Balanced after 4 trials
    23:11:18: Tank A is emptying at 3.37 m
    23:11:18: Pipe 1879 changed from open to temporarily closed
    23:11:18: Pipe p2 changed from open to temporarily closed
   
    23:17:16: Balancing the network:
              Trial  1: relative flow change = 0.000529
              CV 1196 switched from closed to open
              Pipe 1740 switched from open to closed
              CV 1783 switched from closed to open
              Pipe 1879 switched from closed to open
              Pipe p2 switched from closed to open
              Trial  2: relative flow change = 0.978680
              Trial  3: relative flow change = 1.119601
              CV 1154 switched from open to closed
              CV 1196 switched from open to closed
              CV 1210 switched from closed to open
              Trial  4: relative flow change = 1.068541
              Trial  5: relative flow change = 0.932879
              CV 1154 switched from closed to open
              Trial  6: relative flow change = 0.767247
              Trial  7: relative flow change = 0.529974
              CV 1196 switched from closed to open
              CV 1210 switched from open to closed
              Trial  8: relative flow change = 0.314154
              Trial  9: relative flow change = 0.166320
              Trial 10: relative flow change = 0.079941
              Trial 11: relative flow change = 0.036861
              Trial 12: relative flow change = 0.015026
              Trial 13: relative flow change = 0.004193
              Trial 14: relative flow change = 0.000414
    23:17:16: Balanced after 14 trials
    23:17:16: Tank C is closed at 2.00 m
    23:17:16: Tank A is filling at 3.36 m
    23:17:16: Tank D is filling at 2.11 m
    23:17:16: Tank E is filling at 2.69 m
    23:17:16: CV 1196 changed from temporarily closed to open
    23:17:16: Pipe 1740 changed from open to temporarily closed
    23:17:16: CV 1783 changed from temporarily closed to open
    23:17:16: Pipe 1879 changed from temporarily closed to open
    23:17:16: Pipe p2 changed from temporarily closed to open
   
    23:18:26: Balancing the network:
              Trial  1: relative flow change = 0.000220
              CV 1783 switched from open to closed
              Trial  2: relative flow change = 0.017598
              Trial  3: relative flow change = 0.000000
    23:18:26: Balanced after 3 trials
    23:18:26: Tank E is emptying at 2.69 m
    23:18:26: CV 1783 changed from open to temporarily closed
   
    23:18:34: Balancing the network:
              Trial  1: relative flow change = 0.000025
              CV 1196 switched from open to closed
              Trial  2: relative flow change = 0.076525
              Trial  3: relative flow change = 0.000001
    23:18:34: Balanced after 3 trials
    23:18:34: Tank D is emptying at 2.11 m
    23:18:34: CV 1196 changed from open to temporarily closed
   
    23:18:55: Balancing the network:
              Trial  1: relative flow change = 0.000060
              CV 1196 switched from closed to open
              Pipe 1304 switched from open to closed
              CV 1783 switched from closed to open
              Trial  2: relative flow change = 0.984057
              Trial  3: relative flow change = 1.124374
              CV 1154 switched from open to closed
              CV 1196 switched from open to closed
              CV 1210 switched from closed to open
              Trial  4: relative flow change = 1.078926
              Trial  5: relative flow change = 0.950070
              CV 1154 switched from closed to open
              Trial  6: relative flow change = 0.792065
              Trial  7: relative flow change = 0.556271
              CV 1196 switched from closed to open
              CV 1210 switched from open to closed
              Trial  8: relative flow change = 0.334331
              Trial  9: relative flow change = 0.178912
              Trial 10: relative flow change = 0.086517
              Trial 11: relative flow change = 0.040015
              Trial 12: relative flow change = 0.016333
              Trial 13: relative flow change = 0.004559
              Trial 14: relative flow change = 0.000451
    23:18:55: Balanced after 14 trials
    23:18:55: Tank D is filling at 2.11 m
    23:18:55: Tank B is emptying at 3.65 m
    23:18:55: Tank E is filling at 2.69 m
    23:18:55: CV 1196 changed from temporarily closed to open
    23:18:55: Pipe 1304 changed from open to temporarily closed
    23:18:55: CV 1783 changed from temporarily closed to open
   
    23:19:00: Balancing the network:
              Trial  1: relative flow change = 0.000008
              CV 1196 switched from open to closed
              CV 1783 switched from open to closed
              Trial  2: relative flow change = 0.104675
              Trial  3: relative flow change = 0.000001
    23:19:00: Balanced after 3 trials
    23:19:00: Tank D is emptying at 2.11 m
    23:19:00: Tank E is emptying at 2.69 m
    23:19:00: CV 1196 changed from open to temporarily closed
    23:19:00: CV 1783 changed from open to temporarily closed
   
    23:20:12: Balancing the network:
              Trial  1: relative flow change = 0.000068
              CV 1196 switched from closed to open
              Pipe 1304 switched from closed to open
              CV 1783 switched from closed to open
              Pipe 1879 switched from open to closed
              Pipe p2 switched from open to closed
              Trial  2: relative flow change = 0.983670
              Trial  3: relative flow change = 1.121478
              Pipe 788 switched from open to closed
              CV 1154 switched from open to closed
              CV 1196 switched from open to closed
              CV 1210 switched from closed to open
              Trial  4: relative flow change = 1.072833
              Trial  5: relative flow change = 0.933657
              Pipe 788 switched from closed to open
              CV 1653 switched from open to closed
              Pipe 1740 switched from closed to open
              Pump 5C switched from open to closed
              Pump 6D switched from open to closed
              Trial  6: relative flow change = 0.770527
              Trial  7: relative flow change = 0.533421
              Pump 5C switched from closed to open
              Pump 6D switched from closed to open
              Trial  8: relative flow change = 0.325005
              Trial  9: relative flow change = 0.175408
              CV 1154 switched from closed to open
              CV 1653 switched from closed to open
              Trial 10: relative flow change = 0.470847
              Trial 11: relative flow change = 0.362564
              Trial 12: relative flow change = 0.076411
              Trial 13: relative flow change = 0.007408
              Trial 14: relative flow change = 0.000578
              CV 1196 switched from closed to open
              CV 1210 switched from open to closed
              Pipe 1740 switched from open to closed
              Trial 15: relative flow change = 0.099970
              Trial 16: relative flow change = 0.004765
              Trial 17: relative flow change = 0.000036
    23:20:12: Balanced after 17 trials
    23:20:12: Tank A is emptying at 3.37 m
    23:20:12: Tank D is filling at 2.11 m
    23:20:12: Tank B is filling at 3.65 m
    23:20:12: Tank E is filling at 2.69 m
    23:20:12: CV 1196 changed from temporarily closed to open
    23:20:12: Pipe 1304 changed from temporarily closed to open
    23:20:12: CV 1783 changed from temporarily closed to open
    23:20:12: Pipe 1879 changed from open to temporarily closed
    23:20:12: Pipe p2 changed from open to temporarily closed
   
    23:20:23: Balancing the network:
              Trial  1: relative flow change = 0.000016
              Pipe 1304 switched from open to closed
              CV 1783 switched from open to closed
              Pipe 1879 switched from closed to open
              Pipe p2 switched from closed to open
              Trial  2: relative flow change = 0.382888
              Trial  3: relative flow change = 0.002800
              Trial  4: relative flow change = 0.000002
    23:20:23: Balanced after 4 trials
    23:20:23: Tank A is filling at 3.37 m
    23:20:23: Tank B is emptying at 3.65 m
    23:20:23: Tank E is emptying at 2.69 m
    23:20:23: Pipe 1304 changed from open to temporarily closed
    23:20:23: CV 1783 changed from open to temporarily closed
    23:20:23: Pipe 1879 changed from temporarily closed to open
    23:20:23: Pipe p2 changed from temporarily closed to open
   
    23:20:26: Balancing the network:
              Trial  1: relative flow change = 0.000002
              CV 1196 switched from open to closed
              CV 1783 switched from closed to open
              Trial  2: relative flow change = 0.979436
              Trial  3: relative flow change = 1.117907
              Trial  4: relative flow change = 1.058820
              Trial  5: relative flow change = 0.949698
              Trial  6: relative flow change = 0.775856
              Trial  7: relative flow change = 0.554941
              Trial  8: relative flow change = 0.342609
              Trial  9: relative flow change = 0.186683
              Trial 10: relative flow change = 0.093131
              Trial 11: relative flow change = 0.043226
              Trial 12: relative flow change = 0.017666
              Trial 13: relative flow change = 0.004933
              Trial 14: relative flow change = 0.000487
    23:20:26: Balanced after 14 trials
    23:20:26: Tank D is emptying at 2.11 m
    23:20:26: Tank E is filling at 2.69 m
    23:20:26: CV 1196 changed from open to temporarily closed
    23:20:26: CV 1783 changed from temporarily closed to open
   
    23:20:28: Balancing the network:
              Trial  1: relative flow change = 0.000007
              CV 1783 switched from open to closed
              Pipe 1879 switched from open to closed
              Pipe p2 switched from open to closed
              Trial  2: relative flow change = 12.786272
              Trial  3: relative flow change = 0.000037
    23:20:28: Balanced after 3 trials
    23:20:28: Tank A is emptying at 3.37 m
    23:20:28: Tank E is emptying at 2.69 m
    23:20:28: CV 1783 changed from open to temporarily closed
    23:20:28: Pipe 1879 changed from open to temporarily closed
    23:20:28: Pipe p2 changed from open to temporarily closed
   
    24:00:00: Balancing the network:
              Trial  1: relative flow change = 0.597692
              Trial  2: relative flow change = 0.000001
              CV 1196 switched from closed to open
              Pipe 1304 switched from closed to open
              CV 1783 switched from closed to open
              Pipe 1879 switched from closed to open
              Pipe p2 switched from closed to open
              Trial  3: relative flow change = 0.993151
              Trial  4: relative flow change = 1.256533
              CV 1154 switched from open to closed
              CV 1196 switched from open to closed
              CV 1210 switched from closed to open
              Trial  5: relative flow change = 1.087098
              Trial  6: relative flow change = 0.768310
              CV 1154 switched from closed to open
              Trial  7: relative flow change = 0.572764
              Trial  8: relative flow change = 0.311913
              CV 1196 switched from closed to open
              CV 1210 switched from open to closed
              Trial  9: relative flow change = 0.165410
              Trial 10: relative flow change = 0.083022
              Trial 11: relative flow change = 0.036962
              Trial 12: relative flow change = 0.015255
              Trial 13: relative flow change = 0.004443
              Trial 14: relative flow change = 0.000489
    24:00:00: Balanced after 14 trials
    24:00:00: Tank D is filling at 2.08 m
    24:00:00: Tank B is filling at 3.58 m
    24:00:00: Tank E is filling at 2.67 m
    24:00:00: CV 1196 changed from temporarily closed to open
    24:00:00: Pipe 1304 changed from temporarily closed to open
    24:00:00: CV 1783 changed from temporarily closed to open
    24:00:00: Pipe 1879 changed from temporarily closed to open
    24:00:00: Pipe p2 changed from temporarily closed to open
   