  Page 1                                    Tue Jun 11 10:42:36 2019

  ******************************************************************
  *                           E P A N E T                          *
  *                   Hydraulic and Water Quality                  *
  *                   Analysis for Pipe Networks                   *
  *                         Version 2.00.12                        *
  ******************************************************************
  
  Analysis begun Tue Jun 11 10:42:36 2019

   
  Hydraulic Status:
  -----------------------------------------------------------------------
     0:00:00: Balancing the network:
              Trial  1: relative flow change = 1.060377
              Trial  2: relative flow change = 0.869754
              CV 1033 switched from open to closed
              CV 1196 switched from open to closed
              CV 1210 switched from open to closed
              CV 1677 switched from open to closed
              Trial  3: relative flow change = 13.359911
              Trial  4: relative flow change = 0.009276
              CV 1210 switched from closed to open
              CV 1677 switched from closed to open
              Trial  5: relative flow change = 0.273935
              Trial  6: relative flow change = 0.000031
     0:00:00: Balanced after 6 trials
     0:00:00: Reservoir O is emptying
     0:00:00: Tank C is emptying at 1.84 m
     0:00:00: Tank A is emptying at 3.12 m
     0:00:00: Tank D is emptying at 1.94 m
     0:00:00: Tank B is emptying at 3.37 m
     0:00:00: Tank E is filling at 2.47 m
     0:00:00: Tank F is emptying at 1.96 m
     0:00:00: CV 1033 closed
     0:00:00: CV 1196 closed
   
     1:00:00: Balancing the network:
              Trial  1: relative flow change = 0.995842
              Trial  2: relative flow change = 2.122881
              CV 1154 switched from open to closed
              CV 1210 switched from open to closed
              CV 1677 switched from open to closed
              Pump 3A switched from open to closed
              Trial  3: relative flow change = 21.426062
              Trial  4: relative flow change = 0.001942
              CV 1033 switched from closed to open
              CV 1154 switched from closed to open
              CV 1210 switched from closed to open
              Pump 3A switched from closed to open
              Trial  5: relative flow change = 0.932064
              Trial  6: relative flow change = 1.034545
              CV 1033 switched from open to closed
              CV 1154 switched from open to closed
              CV 1210 switched from open to closed
              Trial  7: relative flow change = 0.963844
              Trial  8: relative flow change = 0.007314
              CV 1154 switched from closed to open
              CV 1210 switched from closed to open
              Trial  9: relative flow change = 0.309035
              Trial 10: relative flow change = 0.256642
              CV 1154 switched from open to closed
              CV 1210 switched from open to closed
              Trial 11: relative flow change = 0.145873
              Trial 12: relative flow change = 0.000257
              CV 1154 switched from closed to open
              CV 1210 switched from closed to open
              Trial 13: relative flow change = 0.309031
              Trial 14: relative flow change = 0.256642
              Trial 15: relative flow change = 0.051133
              Trial 16: relative flow change = 0.002572
              Trial 17: relative flow change = 0.000007
              CV 1196 switched from closed to open
              CV 1210 switched from open to closed
              Trial 18: relative flow change = 0.032058
              Trial 19: relative flow change = 0.002208
              Trial 20: relative flow change = 0.000009
     1:00:00: Balanced after 20 trials
     1:00:00: Tank A is filling at 3.01 m
     1:00:00: CV 1196 changed from closed to open
     1:00:00: CV 1210 changed from open to closed
     1:00:00: CV 1677 changed from open to closed
     1:00:00: Pump 2A changed from closed to open
     1:00:00: Pump 6D changed from closed to open
     1:00:00: Pump 3A changed from closed to open
   
     2:00:00: Balancing the network:
              Trial  1: relative flow change = 0.437960
              Trial  2: relative flow change = 0.084126
              Trial  3: relative flow change = 0.005743
              Trial  4: relative flow change = 0.000008
     2:00:00: Balanced after 4 trials
     2:00:00: Tank A is emptying at 3.07 m
     2:00:00: Tank B is filling at 2.39 m
     2:00:00: Pump 4B changed from closed to open
     2:00:00: Pump 1A changed from closed to open
   
     3:00:00: Balancing the network:
              Trial  1: relative flow change = 0.338493
              Trial  2: relative flow change = 0.038259
              Trial  3: relative flow change = 0.000181
     3:00:00: Balanced after 3 trials
     3:00:00: Pump 1A changed from open to closed
   
     4:00:00: Balancing the network:
              Trial  1: relative flow change = 0.039030
              Trial  2: relative flow change = 0.000117
     4:00:00: Balanced after 2 trials
   
     4:58:59: Balancing the network:
              Trial  1: relative flow change = 0.238878
              Trial  2: relative flow change = 0.000914
              CV 1783 switched from open to closed
              Trial  3: relative flow change = 0.017111
              Trial  4: relative flow change = 0.000000
     4:58:59: Balanced after 4 trials
     4:58:59: Tank A is filling at 2.64 m
     4:58:59: Tank D is filling at 1.33 m
     4:58:59: Tank B is emptying at 2.90 m
     4:58:59: Tank E is emptying at 2.69 m
     4:58:59: CV 1783 changed from open to temporarily closed
     4:58:59: Pump 4B changed from open to closed
   
     5:00:00: Balancing the network:
              Trial  1: relative flow change = 0.012362
              Trial  2: relative flow change = 0.000005
              CV 1783 switched from closed to open
              Trial  3: relative flow change = 0.931089
              Trial  4: relative flow change = 1.011044
              Trial  5: relative flow change = 0.869577
              Trial  6: relative flow change = 0.666744
              Trial  7: relative flow change = 0.442341
              Trial  8: relative flow change = 0.255273
              Trial  9: relative flow change = 0.132642
              Trial 10: relative flow change = 0.064177
              Trial 11: relative flow change = 0.028929
              Trial 12: relative flow change = 0.011065
              Trial 13: relative flow change = 0.002545
              Trial 14: relative flow change = 0.000159
     5:00:00: Balanced after 14 trials
     5:00:00: Tank E is filling at 2.69 m
     5:00:00: CV 1783 changed from temporarily closed to open
   
     5:01:54: Balancing the network:
              Trial  1: relative flow change = 0.000031
              CV 1783 switched from open to closed
              Trial  2: relative flow change = 0.017244
              Trial  3: relative flow change = 0.000000
     5:01:54: Balanced after 3 trials
     5:01:54: Tank E is emptying at 2.69 m
     5:01:54: CV 1783 changed from open to temporarily closed
   
     6:00:00: Balancing the network:
              Trial  1: relative flow change = 0.002810
              Trial  2: relative flow change = 0.000062
              CV 1783 switched from closed to open
              Trial  3: relative flow change = 0.932375
              Trial  4: relative flow change = 1.013857
              Trial  5: relative flow change = 0.874112
              Trial  6: relative flow change = 0.672561
              Trial  7: relative flow change = 0.447932
              Trial  8: relative flow change = 0.259342
              Trial  9: relative flow change = 0.135053
              Trial 10: relative flow change = 0.065442
              Trial 11: relative flow change = 0.029554
              Trial 12: relative flow change = 0.011363
              Trial 13: relative flow change = 0.002654
              Trial 14: relative flow change = 0.000172
     6:00:00: Balanced after 14 trials
     6:00:00: Tank E is filling at 2.57 m
     6:00:00: CV 1783 changed from temporarily closed to open
   
     7:00:00: Balancing the network:
              Trial  1: relative flow change = 0.277759
              Trial  2: relative flow change = 0.038411
              Trial  3: relative flow change = 0.001584
              Trial  4: relative flow change = 0.000072
     7:00:00: Balanced after 4 trials
     7:00:00: Tank A is emptying at 2.94 m
     7:00:00: Tank B is filling at 2.11 m
     7:00:00: Tank E is emptying at 2.64 m
     7:00:00: Tank F is filling at 1.60 m
     7:00:00: Pump 7F changed from closed to open
     7:00:00: Pump 4B changed from closed to open
   
     8:00:00: Balancing the network:
              Trial  1: relative flow change = 0.316648
              Trial  2: relative flow change = 0.026487
              Trial  3: relative flow change = 0.003355
              Trial  4: relative flow change = 0.000156
     8:00:00: Balanced after 4 trials
     8:00:00: Tank C is filling at 0.63 m
     8:00:00: Tank A is filling at 2.81 m
     8:00:00: Tank B is emptying at 2.41 m
     8:00:00: Tank E is filling at 2.64 m
     8:00:00: Tank F is emptying at 1.97 m
     8:00:00: Pump 7F changed from open to closed
     8:00:00: Pump 5C changed from closed to open
     8:00:00: Pump 4B changed from open to closed
   
     8:35:42: Balancing the network:
              Trial  1: relative flow change = 0.255980
              Trial  2: relative flow change = 0.031368
              CV 1783 switched from open to closed
              Trial  3: relative flow change = 0.016356
              Trial  4: relative flow change = 0.000000
     8:35:42: Balanced after 4 trials
     8:35:42: Tank A is emptying at 2.89 m
     8:35:42: Tank B is filling at 2.21 m
     8:35:42: Tank E is emptying at 2.69 m
     8:35:42: CV 1783 changed from open to temporarily closed
     8:35:42: Pump 4B changed from closed to open
   
     9:00:00: Balancing the network:
              Trial  1: relative flow change = 0.005855
              Trial  2: relative flow change = 0.000652
              CV 1783 switched from closed to open
              Trial  3: relative flow change = 0.928642
              Trial  4: relative flow change = 1.005716
              Trial  5: relative flow change = 0.861051
              Trial  6: relative flow change = 0.655925
              Trial  7: relative flow change = 0.432074
              Trial  8: relative flow change = 0.247905
              Trial  9: relative flow change = 0.128373
              Trial 10: relative flow change = 0.062081
              Trial 11: relative flow change = 0.028132
              Trial 12: relative flow change = 0.011012
              Trial 13: relative flow change = 0.002725
              Trial 14: relative flow change = 0.000202
     9:00:00: Balanced after 14 trials
     9:00:00: Tank E is filling at 2.64 m
     9:00:00: CV 1783 changed from temporarily closed to open
   
     9:32:21: Balancing the network:
              Trial  1: relative flow change = 0.240730
              Trial  2: relative flow change = 0.001355
              CV 1783 switched from open to closed
              Trial  3: relative flow change = 0.016725
              Trial  4: relative flow change = 0.000000
     9:32:21: Balanced after 4 trials
     9:32:21: Tank A is filling at 2.74 m
     9:32:21: Tank B is emptying at 2.50 m
     9:32:21: Tank E is emptying at 2.69 m
     9:32:21: CV 1783 changed from open to temporarily closed
     9:32:21: Pump 4B changed from open to closed
   
    10:00:00: Balancing the network:
              Trial  1: relative flow change = 0.014700
              Trial  2: relative flow change = 0.000085
              CV 1783 switched from closed to open
              Trial  3: relative flow change = 0.928937
              Trial  4: relative flow change = 1.006356
              Trial  5: relative flow change = 0.862070
              Trial  6: relative flow change = 0.657206
              Trial  7: relative flow change = 0.433271
              Trial  8: relative flow change = 0.248738
              Trial  9: relative flow change = 0.128811
              Trial 10: relative flow change = 0.062213
              Trial 11: relative flow change = 0.028026
              Trial 12: relative flow change = 0.010727
              Trial 13: relative flow change = 0.002475
              Trial 14: relative flow change = 0.000156
    10:00:00: Balanced after 14 trials
    10:00:00: Tank E is filling at 2.64 m
    10:00:00: CV 1783 changed from temporarily closed to open
   
    10:43:22: Balancing the network:
              Trial  1: relative flow change = 0.308482
              Trial  2: relative flow change = 0.035464
              CV 1783 switched from open to closed
              Trial  3: relative flow change = 0.016637
              Trial  4: relative flow change = 0.000001
    10:43:22: Balanced after 4 trials
    10:43:22: Tank C is emptying at 1.53 m
    10:43:22: Tank A is emptying at 2.88 m
    10:43:22: Tank B is filling at 2.05 m
    10:43:22: Tank E is emptying at 2.69 m
    10:43:22: CV 1783 changed from open to temporarily closed
    10:43:22: Pump 5C changed from open to closed
    10:43:22: Pump 4B changed from closed to open
   
    11:00:00: Balancing the network:
              Trial  1: relative flow change = 0.035116
              Trial  2: relative flow change = 0.000172
              CV 1783 switched from closed to open
              Trial  3: relative flow change = 0.913013
              Trial  4: relative flow change = 0.972330
              Trial  5: relative flow change = 0.809327
              Trial  6: relative flow change = 0.593136
              Trial  7: relative flow change = 0.375158
              Trial  8: relative flow change = 0.208366
              Trial  9: relative flow change = 0.105585
              Trial 10: relative flow change = 0.050224
              Trial 11: relative flow change = 0.022140
              Trial 12: relative flow change = 0.007960
              Trial 13: relative flow change = 0.001533
              Trial 14: relative flow change = 0.000064
    11:00:00: Balanced after 14 trials
    11:00:00: Tank D is emptying at 1.61 m
    11:00:00: Tank E is filling at 2.65 m
    11:00:00: CV 1783 changed from temporarily closed to open
   
    11:46:16: Balancing the network:
              Trial  1: relative flow change = 0.247022
              Trial  2: relative flow change = 0.000986
              CV 1783 switched from open to closed
              Trial  3: relative flow change = 0.016907
              Trial  4: relative flow change = 0.000000
    11:46:16: Balanced after 4 trials
    11:46:16: Tank A is filling at 2.70 m
    11:46:16: Tank D is filling at 1.57 m
    11:46:16: Tank B is emptying at 2.28 m
    11:46:16: Tank E is emptying at 2.69 m
    11:46:16: CV 1783 changed from open to temporarily closed
    11:46:16: Pump 4B changed from open to closed
   
    12:00:00: Balancing the network:
              Trial  1: relative flow change = 0.001356
              Trial  2: relative flow change = 0.000000
              CV 1783 switched from closed to open
              Trial  3: relative flow change = 0.918731
              Trial  4: relative flow change = 0.984412
              Trial  5: relative flow change = 0.827708
              Trial  6: relative flow change = 0.614889
              Trial  7: relative flow change = 0.394341
              Trial  8: relative flow change = 0.221377
              Trial  9: relative flow change = 0.112918
              Trial 10: relative flow change = 0.053891
              Trial 11: relative flow change = 0.023780
              Trial 12: relative flow change = 0.008534
              Trial 13: relative flow change = 0.001633
              Trial 14: relative flow change = 0.000068
    12:00:00: Balanced after 14 trials
    12:00:00: Tank D is emptying at 1.57 m
    12:00:00: Tank E is filling at 2.65 m
    12:00:00: CV 1783 changed from temporarily closed to open
   
    12:47:51: Balancing the network:
              Trial  1: relative flow change = 0.264252
              Trial  2: relative flow change = 0.036995
              CV 1783 switched from open to closed
              Trial  3: relative flow change = 0.016406
              Trial  4: relative flow change = 0.000000
    12:47:51: Balanced after 4 trials
    12:47:51: Tank A is emptying at 2.80 m
    12:47:51: Tank D is filling at 1.53 m
    12:47:51: Tank B is filling at 1.78 m
    12:47:51: Tank E is emptying at 2.69 m
    12:47:51: CV 1783 changed from open to temporarily closed
    12:47:51: Pump 4B changed from closed to open
   
    13:00:00: Balancing the network:
              Trial  1: relative flow change = 0.004780
              Trial  2: relative flow change = 0.000001
              CV 1783 switched from closed to open
              Trial  3: relative flow change = 0.913660
              Trial  4: relative flow change = 0.973690
              Trial  5: relative flow change = 0.811378
              Trial  6: relative flow change = 0.595534
              Trial  7: relative flow change = 0.377249
              Trial  8: relative flow change = 0.209776
              Trial  9: relative flow change = 0.106383
              Trial 10: relative flow change = 0.050637
              Trial 11: relative flow change = 0.022352
              Trial 12: relative flow change = 0.008070
              Trial 13: relative flow change = 0.001573
              Trial 14: relative flow change = 0.000068
    13:00:00: Balanced after 14 trials
    13:00:00: Tank D is emptying at 1.54 m
    13:00:00: Tank E is filling at 2.66 m
    13:00:00: CV 1783 changed from temporarily closed to open
   
    13:39:59: Balancing the network:
              Trial  1: relative flow change = 0.003727
              Trial  2: relative flow change = 0.000006
              CV 1783 switched from open to closed
              Trial  3: relative flow change = 0.015581
              Trial  4: relative flow change = 0.000000
    13:39:59: Balanced after 4 trials
    13:39:59: Tank D is filling at 1.51 m
    13:39:59: Tank E is emptying at 2.69 m
    13:39:59: CV 1783 changed from open to temporarily closed
   
    14:00:00: Balancing the network:
              Trial  1: relative flow change = 0.012757
              Trial  2: relative flow change = 0.000216
              CV 1783 switched from closed to open
              Trial  3: relative flow change = 0.917950
              Trial  4: relative flow change = 0.982755
              Trial  5: relative flow change = 0.825168
              Trial  6: relative flow change = 0.611852
              Trial  7: relative flow change = 0.391644
              Trial  8: relative flow change = 0.219557
              Trial  9: relative flow change = 0.111937
              Trial 10: relative flow change = 0.053494
              Trial 11: relative flow change = 0.023770
              Trial 12: relative flow change = 0.008758
              Trial 13: relative flow change = 0.001809
              Trial 14: relative flow change = 0.000089
    14:00:00: Balanced after 14 trials
    14:00:00: Tank D is emptying at 1.52 m
    14:00:00: Tank E is filling at 2.64 m
    14:00:00: CV 1783 changed from temporarily closed to open
   
    14:54:13: Balancing the network:
              Trial  1: relative flow change = 0.246609
              Trial  2: relative flow change = 0.000994
              CV 1783 switched from open to closed
              Trial  3: relative flow change = 0.017016
              Trial  4: relative flow change = 0.000000
    14:54:13: Balanced after 4 trials
    14:54:13: Tank A is filling at 2.42 m
    14:54:13: Tank D is filling at 1.50 m
    14:54:13: Tank B is emptying at 2.22 m
    14:54:13: Tank E is emptying at 2.69 m
    14:54:13: CV 1783 changed from open to temporarily closed
    14:54:13: Pump 4B changed from open to closed
   
    15:00:00: Balancing the network:
              Trial  1: relative flow change = 0.030325
              Trial  2: relative flow change = 0.000029
              CV 1783 switched from closed to open
              Trial  3: relative flow change = 0.933557
              Trial  4: relative flow change = 1.016448
              Trial  5: relative flow change = 0.878309
              Trial  6: relative flow change = 0.677981
              Trial  7: relative flow change = 0.453181
              Trial  8: relative flow change = 0.263188
              Trial  9: relative flow change = 0.137345
              Trial 10: relative flow change = 0.066654
              Trial 11: relative flow change = 0.030167
              Trial 12: relative flow change = 0.011672
              Trial 13: relative flow change = 0.002779
              Trial 14: relative flow change = 0.000188
    15:00:00: Balanced after 14 trials
    15:00:00: Tank E is filling at 2.68 m
    15:00:00: CV 1783 changed from temporarily closed to open
   
    15:10:36: Balancing the network:
              Trial  1: relative flow change = 0.254914
              Trial  2: relative flow change = 0.026825
              CV 1783 switched from open to closed
              Trial  3: relative flow change = 0.018113
              Trial  4: relative flow change = 0.000004
    15:10:36: Balanced after 4 trials
    15:10:36: Tank A is emptying at 2.46 m
    15:10:36: Tank B is filling at 2.11 m
    15:10:36: Tank E is emptying at 2.69 m
    15:10:36: CV 1783 changed from open to temporarily closed
    15:10:36: Pump 4B changed from closed to open
   
    16:00:00: Balancing the network:
              Trial  1: relative flow change = 0.014876
              Trial  2: relative flow change = 0.000050
              CV 1783 switched from closed to open
              Trial  3: relative flow change = 0.926143
              Trial  4: relative flow change = 1.000302
              Trial  5: relative flow change = 0.852462
              Trial  6: relative flow change = 0.645155
              Trial  7: relative flow change = 0.421973
              Trial  8: relative flow change = 0.240689
              Trial  9: relative flow change = 0.124121
              Trial 10: relative flow change = 0.059805
              Trial 11: relative flow change = 0.026899
              Trial 12: relative flow change = 0.010272
              Trial 13: relative flow change = 0.002356
              Trial 14: relative flow change = 0.000147
    16:00:00: Balanced after 14 trials
    16:00:00: Tank D is emptying at 1.59 m
    16:00:00: Tank E is filling at 2.59 m
    16:00:00: CV 1783 changed from temporarily closed to open
   
    17:00:00: Balancing the network:
              Trial  1: relative flow change = 0.310143
              Trial  2: relative flow change = 0.032369
              Trial  3: relative flow change = 0.003395
              Trial  4: relative flow change = 0.000034
    17:00:00: Balanced after 4 trials
    17:00:00: Tank C is filling at 0.60 m
    17:00:00: Tank A is filling at 2.23 m
    17:00:00: Tank D is filling at 1.59 m
    17:00:00: Tank B is emptying at 2.58 m
    17:00:00: Pump 5C changed from closed to open
    17:00:00: Pump 4B changed from open to closed
   
    17:15:02: Balancing the network:
              Trial  1: relative flow change = 0.244817
              Trial  2: relative flow change = 0.022174
              CV 1783 switched from open to closed
              Trial  3: relative flow change = 0.023930
              Trial  4: relative flow change = 0.000322
    17:15:02: Balanced after 4 trials
    17:15:02: Tank A is emptying at 2.27 m
    17:15:02: Tank B is filling at 2.51 m
    17:15:02: Tank E is emptying at 2.69 m
    17:15:02: Tank F is filling at 1.54 m
    17:15:02: CV 1783 changed from open to temporarily closed
    17:15:02: Pump 7F changed from closed to open
    17:15:02: Pump 4B changed from closed to open
   
    18:00:00: Balancing the network:
              Trial  1: relative flow change = 0.036420
              Trial  2: relative flow change = 0.000282
              CV 1783 switched from closed to open
              Trial  3: relative flow change = 0.952764
              Trial  4: relative flow change = 1.059524
              Trial  5: relative flow change = 0.950933
              Trial  6: relative flow change = 0.777662
              Trial  7: relative flow change = 0.556988
              Trial  8: relative flow change = 0.344388
              Trial  9: relative flow change = 0.187996
              Trial 10: relative flow change = 0.094162
              Trial 11: relative flow change = 0.044308
              Trial 12: relative flow change = 0.019070
              Trial 13: relative flow change = 0.006342
              Trial 14: relative flow change = 0.000984
    18:00:00: Balanced after 14 trials
    18:00:00: Tank E is filling at 2.55 m
    18:00:00: CV 1783 changed from temporarily closed to open
   
    18:48:26: Balancing the network:
              Trial  1: relative flow change = 0.232547
              Trial  2: relative flow change = 0.001120
              Trial  3: relative flow change = 0.000000
    18:48:26: Balanced after 3 trials
    18:48:26: Tank A is filling at 2.15 m
    18:48:26: Tank B is emptying at 3.08 m
    18:48:26: Tank F is emptying at 2.19 m
    18:48:26: Pump 7F changed from open to closed
    18:48:26: Pump 4B changed from open to closed
   
    19:00:00: Balancing the network:
              Trial  1: relative flow change = 0.007508
              Trial  2: relative flow change = 0.000008
    19:00:00: Balanced after 2 trials
   
    19:33:07: Balancing the network:
              Trial  1: relative flow change = 0.142709
              Trial  2: relative flow change = 0.000000
              CV 1196 switched from open to closed
              CV 1210 switched from closed to open
              CV 1783 switched from open to closed
              Trial  3: relative flow change = 0.019782
              Trial  4: relative flow change = 0.000000
    19:33:07: Balanced after 4 trials
    19:33:07: Tank C is emptying at 1.64 m
    19:33:07: Tank D is emptying at 1.89 m
    19:33:07: Tank E is emptying at 2.69 m
    19:33:07: CV 1196 changed from open to closed
    19:33:07: CV 1210 changed from closed to open
    19:33:07: CV 1783 changed from open to temporarily closed
    19:33:07: Pump 5C changed from open to closed
    19:33:07: Pump 6D changed from open to closed
   
    20:00:00: Balancing the network:
              Trial  1: relative flow change = 0.009936
              Trial  2: relative flow change = 0.000000
              CV 1783 switched from closed to open
              Trial  3: relative flow change = 0.880537
              Trial  4: relative flow change = 0.906379
              Trial  5: relative flow change = 0.715144
              Trial  6: relative flow change = 0.490196
              Trial  7: relative flow change = 0.290936
              Trial  8: relative flow change = 0.154049
              Trial  9: relative flow change = 0.075359
              Trial 10: relative flow change = 0.034219
              Trial 11: relative flow change = 0.013227
              Trial 12: relative flow change = 0.003125
              Trial 13: relative flow change = 0.000208
    20:00:00: Balanced after 13 trials
    20:00:00: Tank E is filling at 2.66 m
    20:00:00: CV 1783 changed from temporarily closed to open
   
    20:12:41: Balancing the network:
              Trial  1: relative flow change = 0.578736
              Trial  2: relative flow change = 0.399287
              CV 1154 switched from open to closed
              CV 1210 switched from open to closed
              CV 1783 switched from open to closed
              Trial  3: relative flow change = 0.246737
              Trial  4: relative flow change = 0.000052
              CV 1154 switched from closed to open
              CV 1210 switched from closed to open
              Trial  5: relative flow change = 0.404388
              Trial  6: relative flow change = 0.368900
              CV 1154 switched from open to closed
              CV 1210 switched from open to closed
              Trial  7: relative flow change = 0.224126
              Trial  8: relative flow change = 0.000000
              CV 1154 switched from closed to open
              CV 1210 switched from closed to open
              Trial  9: relative flow change = 0.404388
              Trial 10: relative flow change = 0.368900
              CV 1154 switched from open to closed
              CV 1210 switched from open to closed
              Trial 11: relative flow change = 0.224126
              Trial 12: relative flow change = 0.000001
              CV 1154 switched from closed to open
              CV 1210 switched from closed to open
              Trial 13: relative flow change = 0.404388
              Trial 14: relative flow change = 0.368900
              Trial 15: relative flow change = 0.099899
              Trial 16: relative flow change = 0.008254
              Trial 17: relative flow change = 0.000458
              CV 1196 switched from closed to open
              CV 1210 switched from open to closed
              Trial 18: relative flow change = 0.045811
              Trial 19: relative flow change = 0.003956
              Trial 20: relative flow change = 0.000027
    20:12:41: Balanced after 20 trials
    20:12:41: Tank A is emptying at 2.53 m
    20:12:41: Tank D is filling at 1.79 m
    20:12:41: Tank B is filling at 2.79 m
    20:12:41: Tank E is emptying at 2.69 m
    20:12:41: CV 1196 changed from closed to open
    20:12:41: CV 1210 changed from open to closed
    20:12:41: CV 1783 changed from open to temporarily closed
    20:12:41: Pump 6D changed from closed to open
    20:12:41: Pump 4B changed from closed to open
   
    21:00:00: Balancing the network:
              Trial  1: relative flow change = 0.009122
              Trial  2: relative flow change = 0.000057
              CV 1783 switched from closed to open
              Trial  3: relative flow change = 0.959587
              Trial  4: relative flow change = 1.075268
              Trial  5: relative flow change = 0.978899
              Trial  6: relative flow change = 0.819272
              Trial  7: relative flow change = 0.604827
              Trial  8: relative flow change = 0.385392
              Trial  9: relative flow change = 0.215250
              Trial 10: relative flow change = 0.109409
              Trial 11: relative flow change = 0.052051
              Trial 12: relative flow change = 0.022813
              Trial 13: relative flow change = 0.008010
              Trial 14: relative flow change = 0.001440
              Trial 15: relative flow change = 0.000052
    21:00:00: Balanced after 15 trials
    21:00:00: Tank E is filling at 2.64 m
    21:00:00: CV 1783 changed from temporarily closed to open
   
    21:20:04: Balancing the network:
              Trial  1: relative flow change = 0.240170
              Trial  2: relative flow change = 0.001165
              CV 1783 switched from open to closed
              Trial  3: relative flow change = 0.018561
              Trial  4: relative flow change = 0.000000
    21:20:04: Balanced after 4 trials
    21:20:04: Tank A is filling at 2.52 m
    21:20:04: Tank B is emptying at 3.27 m
    21:20:04: Tank E is emptying at 2.69 m
    21:20:04: CV 1783 changed from open to temporarily closed
    21:20:04: Pump 4B changed from open to closed
   
    21:47:53: Balancing the network:
              Trial  1: relative flow change = 0.000993
              CV 1196 switched from open to closed
              CV 1783 switched from closed to open
              Trial  2: relative flow change = 0.967877
              Trial  3: relative flow change = 1.088530
              Trial  4: relative flow change = 1.003082
              Trial  5: relative flow change = 0.856854
              Trial  6: relative flow change = 0.650624
              Trial  7: relative flow change = 0.427034
              Trial  8: relative flow change = 0.244189
              Trial  9: relative flow change = 0.125972
              Trial 10: relative flow change = 0.060409
              Trial 11: relative flow change = 0.026577
              Trial 12: relative flow change = 0.009348
              Trial 13: relative flow change = 0.001684
              Trial 14: relative flow change = 0.000061
    21:47:53: Balanced after 14 trials
    21:47:53: Tank D is emptying at 2.11 m
    21:47:53: Tank E is filling at 2.66 m
    21:47:53: CV 1196 changed from open to temporarily closed
    21:47:53: CV 1783 changed from temporarily closed to open
   
    21:59:27: Balancing the network:
              Trial  1: relative flow change = 0.000568
              CV 1196 switched from closed to open
              CV 1783 switched from open to closed
              Trial  2: relative flow change = 0.318473
              Trial  3: relative flow change = 0.244544
              CV 1154 switched from open to closed
              CV 1196 switched from open to closed
              CV 1210 switched from closed to open
              Trial  4: relative flow change = 0.170108
              Trial  5: relative flow change = 0.000001
              CV 1154 switched from closed to open
              Trial  6: relative flow change = 0.467644
              Trial  7: relative flow change = 0.449628
              CV 1154 switched from open to closed
              CV 1210 switched from open to closed
              Trial  8: relative flow change = 0.284830
              Trial  9: relative flow change = 0.000000
              CV 1154 switched from closed to open
              CV 1210 switched from closed to open
              Trial 10: relative flow change = 0.427009
              Trial 11: relative flow change = 0.397781
              Trial 12: relative flow change = 0.108612
              Trial 13: relative flow change = 0.008988
              Trial 14: relative flow change = 0.000515
              CV 1196 switched from closed to open
              CV 1210 switched from open to closed
              Trial 15: relative flow change = 0.049913
              Trial 16: relative flow change = 0.004315
              Trial 17: relative flow change = 0.000030
    21:59:27: Balanced after 17 trials
    21:59:27: Tank D is filling at 2.08 m
    21:59:27: Tank E is emptying at 2.69 m
    21:59:27: CV 1196 changed from temporarily closed to open
    21:59:27: CV 1783 changed from open to temporarily closed
   
    22:00:00: Balancing the network:
              Trial  1: relative flow change = 0.002941
              Trial  2: relative flow change = 0.000000
              CV 1783 switched from closed to open
              Trial  3: relative flow change = 0.961761
              Trial  4: relative flow change = 1.080338
              Trial  5: relative flow change = 0.988074
              Trial  6: relative flow change = 0.833350
              Trial  7: relative flow change = 0.621679
              Trial  8: relative flow change = 0.400423
              Trial  9: relative flow change = 0.225528
              Trial 10: relative flow change = 0.115212
              Trial 11: relative flow change = 0.054920
              Trial 12: relative flow change = 0.024026
              Trial 13: relative flow change = 0.008345
              Trial 14: relative flow change = 0.001454
              Trial 15: relative flow change = 0.000049
    22:00:00: Balanced after 15 trials
    22:00:00: Tank E is filling at 2.69 m
    22:00:00: CV 1783 changed from temporarily closed to open
   
    22:00:14: Balancing the network:
              Trial  1: relative flow change = 0.000009
              CV 1783 switched from open to closed
              Trial  2: relative flow change = 0.018569
              Trial  3: relative flow change = 0.000000
    22:00:14: Balanced after 3 trials
    22:00:14: Tank E is emptying at 2.69 m
    22:00:14: CV 1783 changed from open to temporarily closed
   
    22:08:29: Balancing the network:
              Trial  1: relative flow change = 0.000290
              CV 1196 switched from open to closed
              CV 1783 switched from closed to open
              Trial  2: relative flow change = 0.967058
              Trial  3: relative flow change = 1.086476
              Trial  4: relative flow change = 0.999297
              Trial  5: relative flow change = 0.850870
              Trial  6: relative flow change = 0.643154
              Trial  7: relative flow change = 0.420066
              Trial  8: relative flow change = 0.239238
              Trial  9: relative flow change = 0.123078
              Trial 10: relative flow change = 0.058891
              Trial 11: relative flow change = 0.025809
              Trial 12: relative flow change = 0.008972
              Trial 13: relative flow change = 0.001564
              Trial 14: relative flow change = 0.000053
    22:08:29: Balanced after 14 trials
    22:08:29: Tank D is emptying at 2.11 m
    22:08:29: Tank E is filling at 2.68 m
    22:08:29: CV 1196 changed from open to temporarily closed
    22:08:29: CV 1783 changed from temporarily closed to open
   
    22:12:05: Balancing the network:
              Trial  1: relative flow change = 0.000174
              CV 1196 switched from closed to open
              CV 1783 switched from open to closed
              Trial  2: relative flow change = 0.315736
              Trial  3: relative flow change = 0.241824
              CV 1154 switched from open to closed
              CV 1196 switched from open to closed
              CV 1210 switched from closed to open
              Trial  4: relative flow change = 0.168509
              Trial  5: relative flow change = 0.000001
              CV 1154 switched from closed to open
              Trial  6: relative flow change = 0.466679
              Trial  7: relative flow change = 0.448237
              CV 1154 switched from open to closed
              CV 1210 switched from open to closed
              Trial  8: relative flow change = 0.283393
              Trial  9: relative flow change = 0.000001
              CV 1154 switched from closed to open
              CV 1210 switched from closed to open
              Trial 10: relative flow change = 0.425081
              Trial 11: relative flow change = 0.395288
              Trial 12: relative flow change = 0.107393
              Trial 13: relative flow change = 0.008803
              Trial 14: relative flow change = 0.000507
              CV 1196 switched from closed to open
              CV 1210 switched from open to closed
              Trial 15: relative flow change = 0.049635
              Trial 16: relative flow change = 0.004277
              Trial 17: relative flow change = 0.000029
    22:12:05: Balanced after 17 trials
    22:12:05: Tank D is filling at 2.10 m
    22:12:05: Tank E is emptying at 2.69 m
    22:12:05: CV 1196 changed from temporarily closed to open
    22:12:05: CV 1783 changed from open to temporarily closed
   
    22:14:54: Balancing the network:
              Trial  1: relative flow change = 0.000099
              CV 1196 switched from open to closed
              CV 1783 switched from closed to open
              Trial  2: relative flow change = 0.967065
              Trial  3: relative flow change = 1.086488
              Trial  4: relative flow change = 0.999319
              Trial  5: relative flow change = 0.850904
              Trial  6: relative flow change = 0.643197
              Trial  7: relative flow change = 0.420106
              Trial  8: relative flow change = 0.239266
              Trial  9: relative flow change = 0.123094
              Trial 10: relative flow change = 0.058899
              Trial 11: relative flow change = 0.025813
              Trial 12: relative flow change = 0.008973
              Trial 13: relative flow change = 0.001564
              Trial 14: relative flow change = 0.000053
    22:14:54: Balanced after 14 trials
    22:14:54: Tank D is emptying at 2.11 m
    22:14:54: Tank E is filling at 2.69 m
    22:14:54: CV 1196 changed from open to temporarily closed
    22:14:54: CV 1783 changed from temporarily closed to open
   
    22:16:08: Balancing the network:
              Trial  1: relative flow change = 0.000060
              CV 1196 switched from closed to open
              CV 1783 switched from open to closed
              Trial  2: relative flow change = 0.315853
              Trial  3: relative flow change = 0.241938
              CV 1154 switched from open to closed
              CV 1196 switched from open to closed
              CV 1210 switched from closed to open
              Trial  4: relative flow change = 0.168597
              Trial  5: relative flow change = 0.000001
              CV 1154 switched from closed to open
              Trial  6: relative flow change = 0.466814
              Trial  7: relative flow change = 0.448416
              CV 1154 switched from open to closed
              CV 1210 switched from open to closed
              Trial  8: relative flow change = 0.283557
              Trial  9: relative flow change = 0.000000
              CV 1154 switched from closed to open
              CV 1210 switched from closed to open
              Trial 10: relative flow change = 0.425214
              Trial 11: relative flow change = 0.395455
              Trial 12: relative flow change = 0.107467
              Trial 13: relative flow change = 0.008814
              Trial 14: relative flow change = 0.000505
              CV 1196 switched from closed to open
              CV 1210 switched from open to closed
              Trial 15: relative flow change = 0.049652
              Trial 16: relative flow change = 0.004279
              Trial 17: relative flow change = 0.000029
    22:16:08: Balanced after 17 trials
    22:16:08: Tank D is filling at 2.11 m
    22:16:08: Tank E is emptying at 2.69 m
    22:16:08: CV 1196 changed from temporarily closed to open
    22:16:08: CV 1783 changed from open to temporarily closed
   
    22:17:06: Balancing the network:
              Trial  1: relative flow change = 0.000034
              CV 1196 switched from open to closed
              CV 1783 switched from closed to open
              Trial  2: relative flow change = 0.967067
              Trial  3: relative flow change = 1.086492
              Trial  4: relative flow change = 0.999326
              Trial  5: relative flow change = 0.850916
              Trial  6: relative flow change = 0.643212
              Trial  7: relative flow change = 0.420119
              Trial  8: relative flow change = 0.239275
              Trial  9: relative flow change = 0.123100
              Trial 10: relative flow change = 0.058902
              Trial 11: relative flow change = 0.025814
              Trial 12: relative flow change = 0.008973
              Trial 13: relative flow change = 0.001564
              Trial 14: relative flow change = 0.000053
    22:17:06: Balanced after 14 trials
    22:17:06: Tank D is emptying at 2.11 m
    22:17:06: Tank E is filling at 2.69 m
    22:17:06: CV 1196 changed from open to temporarily closed
    22:17:06: CV 1783 changed from temporarily closed to open
   
    22:17:31: Balancing the network:
              Trial  1: relative flow change = 0.000020
              CV 1196 switched from closed to open
              CV 1783 switched from open to closed
              Trial  2: relative flow change = 0.315893
              Trial  3: relative flow change = 0.241976
              CV 1154 switched from open to closed
              CV 1196 switched from open to closed
              CV 1210 switched from closed to open
              Trial  4: relative flow change = 0.168627
              Trial  5: relative flow change = 0.000001
              CV 1154 switched from closed to open
              Trial  6: relative flow change = 0.466860
              Trial  7: relative flow change = 0.448476
              CV 1154 switched from open to closed
              CV 1210 switched from open to closed
              Trial  8: relative flow change = 0.283612
              Trial  9: relative flow change = 0.000001
              CV 1154 switched from closed to open
              CV 1210 switched from closed to open
              Trial 10: relative flow change = 0.425260
              Trial 11: relative flow change = 0.395512
              Trial 12: relative flow change = 0.107493
              Trial 13: relative flow change = 0.008817
              Trial 14: relative flow change = 0.000504
              CV 1196 switched from closed to open
              CV 1210 switched from open to closed
              Trial 15: relative flow change = 0.049657
              Trial 16: relative flow change = 0.004280
              Trial 17: relative flow change = 0.000030
    22:17:31: Balanced after 17 trials
    22:17:31: Tank D is filling at 2.11 m
    22:17:31: Tank E is emptying at 2.69 m
    22:17:31: CV 1196 changed from temporarily closed to open
    22:17:31: CV 1783 changed from open to temporarily closed
   
    22:17:51: Balancing the network:
              Trial  1: relative flow change = 0.000012
              CV 1196 switched from open to closed
              CV 1783 switched from closed to open
              Trial  2: relative flow change = 0.967068
              Trial  3: relative flow change = 1.086493
              Trial  4: relative flow change = 0.999329
              Trial  5: relative flow change = 0.850920
              Trial  6: relative flow change = 0.643217
              Trial  7: relative flow change = 0.420124
              Trial  8: relative flow change = 0.239279
              Trial  9: relative flow change = 0.123102
              Trial 10: relative flow change = 0.058903
              Trial 11: relative flow change = 0.025814
              Trial 12: relative flow change = 0.008973
              Trial 13: relative flow change = 0.001564
              Trial 14: relative flow change = 0.000053
    22:17:51: Balanced after 14 trials
    22:17:51: Tank D is emptying at 2.11 m
    22:17:51: Tank E is filling at 2.69 m
    22:17:51: CV 1196 changed from open to temporarily closed
    22:17:51: CV 1783 changed from temporarily closed to open
   
    22:18:00: Balancing the network:
              Trial  1: relative flow change = 0.000007
              CV 1196 switched from closed to open
              CV 1783 switched from open to closed
              Trial  2: relative flow change = 0.315907
              Trial  3: relative flow change = 0.241990
              CV 1154 switched from open to closed
              CV 1196 switched from open to closed
              CV 1210 switched from closed to open
              Trial  4: relative flow change = 0.168638
              Trial  5: relative flow change = 0.000001
              CV 1154 switched from closed to open
              Trial  6: relative flow change = 0.466876
              Trial  7: relative flow change = 0.448498
              CV 1154 switched from open to closed
              CV 1210 switched from open to closed
              Trial  8: relative flow change = 0.283632
              Trial  9: relative flow change = 0.000001
              CV 1154 switched from closed to open
              CV 1210 switched from closed to open
              Trial 10: relative flow change = 0.425276
              Trial 11: relative flow change = 0.395533
              Trial 12: relative flow change = 0.107502
              Trial 13: relative flow change = 0.008819
              Trial 14: relative flow change = 0.000504
              CV 1196 switched from closed to open
              CV 1210 switched from open to closed
              Trial 15: relative flow change = 0.049659
              Trial 16: relative flow change = 0.004280
              Trial 17: relative flow change = 0.000029
    22:18:00: Balanced after 17 trials
    22:18:00: Tank D is filling at 2.11 m
    22:18:00: Tank E is emptying at 2.69 m
    22:18:00: CV 1196 changed from temporarily closed to open
    22:18:00: CV 1783 changed from open to temporarily closed
   
    22:18:07: Balancing the network:
              Trial  1: relative flow change = 0.000004
              CV 1196 switched from open to closed
              Trial  2: relative flow change = 0.075275
              Trial  3: relative flow change = 0.000001
    22:18:07: Balanced after 3 trials
    22:18:07: Tank D is emptying at 2.11 m
    22:18:07: CV 1196 changed from open to temporarily closed
   
    23:00:00: Balancing the network:
              Trial  1: relative flow change = 0.018287
              Trial  2: relative flow change = 0.000007
              CV 1196 switched from closed to open
              CV 1783 switched from closed to open
              Trial  3: relative flow change = 0.960248
              Trial  4: relative flow change = 1.084166
              CV 1154 switched from open to closed
              CV 1196 switched from open to closed
              CV 1210 switched from closed to open
              Trial  5: relative flow change = 1.004847
              Trial  6: relative flow change = 0.820395
              CV 1154 switched from closed to open
              Trial  7: relative flow change = 0.643520
              Trial  8: relative flow change = 0.374249
              CV 1196 switched from closed to open
              CV 1210 switched from open to closed
              Trial  9: relative flow change = 0.209125
              Trial 10: relative flow change = 0.106239
              Trial 11: relative flow change = 0.048351
              Trial 12: relative flow change = 0.020702
              Trial 13: relative flow change = 0.006736
              Trial 14: relative flow change = 0.000984
    23:00:00: Balanced after 14 trials
    23:00:00: Tank D is filling at 2.06 m
    23:00:00: Tank E is filling at 2.65 m
    23:00:00: CV 1196 changed from temporarily closed to open
    23:00:00: CV 1783 changed from temporarily closed to open
   
    23:19:52: Balancing the network:
              Trial  1: relative flow change = 0.343625
              Trial  2: relative flow change = 0.084948
              CV 1783 switched from open to closed
              Trial  3: relative flow change = 0.027017
              Trial  4: relative flow change = 0.001392
              Trial  5: relative flow change = 0.000006
    23:19:52: Balanced after 5 trials
    23:19:52: Tank C is filling at 1.40 m
    23:19:52: Tank A is emptying at 3.09 m
    23:19:52: Tank B is filling at 2.88 m
    23:19:52: Tank E is emptying at 2.69 m
    23:19:52: CV 1783 changed from open to temporarily closed
    23:19:52: Pump 5C changed from closed to open
    23:19:52: Pump 4B changed from closed to open
   
    23:25:39: Balancing the network:
              Trial  1: relative flow change = 0.001078
              Trial  2: relative flow change = 0.000001
              CV 1196 switched from open to closed
              CV 1783 switched from closed to open
              Trial  3: relative flow change = 0.956695
              Trial  4: relative flow change = 1.061838
              Trial  5: relative flow change = 0.954988
              Trial  6: relative flow change = 0.783575
              Trial  7: relative flow change = 0.563606
              Trial  8: relative flow change = 0.349901
              Trial  9: relative flow change = 0.191562
              Trial 10: relative flow change = 0.096081
              Trial 11: relative flow change = 0.045178
              Trial 12: relative flow change = 0.019328
              Trial 13: relative flow change = 0.006287
              Trial 14: relative flow change = 0.000918
    23:25:39: Balanced after 14 trials
    23:25:39: Tank D is emptying at 2.11 m
    23:25:39: Tank E is filling at 2.68 m
    23:25:39: CV 1196 changed from open to temporarily closed
    23:25:39: CV 1783 changed from temporarily closed to open
   
    23:28:53: Balancing the network:
              Trial  1: relative flow change = 0.000524
              CV 1196 switched from closed to open
              CV 1783 switched from open to closed
              Trial  2: relative flow change = 0.270145
              Trial  3: relative flow change = 0.199174
              CV 1154 switched from open to closed
              CV 1196 switched from open to closed
              CV 1210 switched from closed to open
              Trial  4: relative flow change = 0.137992
              Trial  5: relative flow change = 0.000115
              CV 1154 switched from closed to open
              Trial  6: relative flow change = 0.421830
              Trial  7: relative flow change = 0.388007
              CV 1154 switched from open to closed
              CV 1210 switched from open to closed
              Trial  8: relative flow change = 0.234723
              Trial  9: relative flow change = 0.000195
              CV 1154 switched from closed to open
              CV 1210 switched from closed to open
              Trial 10: relative flow change = 0.377259
              Trial 11: relative flow change = 0.335610
              Trial 12: relative flow change = 0.086828
              Trial 13: relative flow change = 0.006590
              Trial 14: relative flow change = 0.000412
              CV 1196 switched from closed to open
              CV 1210 switched from open to closed
              Trial 15: relative flow change = 0.042127
              Trial 16: relative flow change = 0.003563
              Trial 17: relative flow change = 0.000023
    23:28:53: Balanced after 17 trials
    23:28:53: Tank D is filling at 2.10 m
    23:28:53: Tank E is emptying at 2.69 m
    23:28:53: CV 1196 changed from temporarily closed to open
    23:28:53: CV 1783 changed from open to temporarily closed
   
    23:31:54: Balancing the network:
              Trial  1: relative flow change = 0.000557
              CV 1196 switched from open to closed
              CV 1783 switched from closed to open
              Trial  2: relative flow change = 0.956707
              Trial  3: relative flow change = 1.061863
              Trial  4: relative flow change = 0.955034
              Trial  5: relative flow change = 0.783642
              Trial  6: relative flow change = 0.563681
              Trial  7: relative flow change = 0.349964
              Trial  8: relative flow change = 0.191603
              Trial  9: relative flow change = 0.096103
              Trial 10: relative flow change = 0.045189
              Trial 11: relative flow change = 0.019333
              Trial 12: relative flow change = 0.006288
              Trial 13: relative flow change = 0.000918
    23:31:54: Balanced after 13 trials
    23:31:54: Tank D is emptying at 2.11 m
    23:31:54: Tank E is filling at 2.69 m
    23:31:54: CV 1196 changed from open to temporarily closed
    23:31:54: CV 1783 changed from temporarily closed to open
   
    23:33:35: Balancing the network:
              Trial  1: relative flow change = 0.000281
              CV 1196 switched from closed to open
              CV 1783 switched from open to closed
              Trial  2: relative flow change = 0.270141
              Trial  3: relative flow change = 0.199167
              CV 1154 switched from open to closed
              CV 1196 switched from open to closed
              CV 1210 switched from closed to open
              Trial  4: relative flow change = 0.137990
              Trial  5: relative flow change = 0.000115
              CV 1154 switched from closed to open
              Trial  6: relative flow change = 0.421824
              Trial  7: relative flow change = 0.388005
              CV 1154 switched from open to closed
              CV 1210 switched from open to closed
              Trial  8: relative flow change = 0.234710
              Trial  9: relative flow change = 0.000195
              CV 1154 switched from closed to open
              CV 1210 switched from closed to open
              Trial 10: relative flow change = 0.377252
              Trial 11: relative flow change = 0.335604
              Trial 12: relative flow change = 0.086812
              Trial 13: relative flow change = 0.006586
              Trial 14: relative flow change = 0.000413
              CV 1196 switched from closed to open
              CV 1210 switched from open to closed
              Trial 15: relative flow change = 0.042131
              Trial 16: relative flow change = 0.003563
              Trial 17: relative flow change = 0.000023
    23:33:35: Balanced after 17 trials
    23:33:35: Tank D is filling at 2.10 m
    23:33:35: Tank E is emptying at 2.69 m
    23:33:35: CV 1196 changed from temporarily closed to open
    23:33:35: CV 1783 changed from open to temporarily closed
   
    23:35:09: Balancing the network:
              Trial  1: relative flow change = 0.000288
              CV 1196 switched from open to closed
              CV 1783 switched from closed to open
              Trial  2: relative flow change = 0.956712
              Trial  3: relative flow change = 1.061877
              Trial  4: relative flow change = 0.955057
              Trial  5: relative flow change = 0.783676
              Trial  6: relative flow change = 0.563720
              Trial  7: relative flow change = 0.349996
      open
              CV 1210 switched from closed to open
              Trial 10: relative flow change = 0.392983
              Trial 11: relative flow change = 0.354921
              Trial 12: relative flow change = 0.093009
              Trial 13: relative flow change = 0.007207
              Trial 14: relative flow change = 0.000445
              CV 1196 switched from closed to open
              CV 1210 switched from open to closed
              Trial 15: relative flow change = 0.044348
              Trial 16: relative flow change = 0.003747
              Trial 17: relative flow change = 0.000025
    23:19:56: Balanced after 17 trials
    23:19:56: Tank A is emptying at 2.84 m
    23:19:56: Tank D is filling at 2.11 m
    23:19:56: Tank B is filling at 3.65 m
    23:19:56: Tank E is emptying at 2.69 m
    23:19:56: CV 1196 changed from temporarily closed to open
    23:19:56: Pipe 1304 changed from temporarily closed to open
    23:19:56: CV 1783 changed from open to temporarily closed
   
    23:19:58: Balancing the network:
              Trial  1: relative flow change = 0.000006
              CV 1196 switched from open to closed
              Pipe 1304 switched from open to closed
              Trial  2: relative flow change = 0.327196
              Trial  3: relative flow change = 0.001217
              Trial  4: relative flow change = 0.000000
    23:19:58: Balanced after 4 trials
    23:19:58: Tank A is filling at 2.84 m
    23:19:58: Tank D is emptying at 2.11 m
    23:19:58: Tank B is emptying at 3.65 m
    23:19:58: CV 1196 changed from open to temporarily closed
    23:19:58: Pipe 1304 changed from open to temporarily closed
   
    24:00:00: Balancing the network:
              Trial  1: relative flow change = 0.090644
              Trial  2: relative flow change = 0.000122
              CV 1196 switched from closed to open
              Pipe 1304 switched from closed to open
              CV 1783 switched from closed to open
              Trial  3: relative flow change = 0.947402
              Trial  4: relative flow change = 1.019425
              CV 1154 switched from open to closed
              CV 1196 switched from open to closed
              CV 1210 switched from closed to open
              Trial  5: relative flow change = 0.894732
              Trial  6: relative flow change = 0.660386
              CV 1154 switched from closed to open
              Trial  7: relative flow change = 0.500833
              Trial  8: relative flow change = 0.254417
              CV 1196 switched from closed to open
              CV 1210 switched from open to closed
              Trial  9: relative flow change = 0.124429
              Trial 10: relative flow change = 0.061972
              Trial 11: relative flow change = 0.026677
              Trial 12: relative flow change = 0.010132
              Trial 13: relative flow change = 0.002290
              Trial 14: relative flow change = 0.000138
    24:00:00: Balanced after 14 trials
    24:00:00: Tank A is emptying at 3.05 m
    24:00:00: Tank B is filling at 3.50 m
    24:00:00: Tank E is filling at 2.64 m
    24:00:00: CV 1196 changed from temporarily closed to open
    24:00:00: Pipe 1304 changed from temporarily closed to open
    24:00:00: CV 1783 changed from temporarily closed to open
   36:50: Balanced after 13 trials
    23:36:50: Tank D is emptying at 2.11 m
    23:36:50: Tank E is filling at 2.69 m
    23:36:50: CV 1196 changed from open to temporarily closed
    23:36:50: CV 1783 changed from temporarily closed to open
   
    23:37:17: Balancing the network:
              Trial  1: relative flow change = 0.000090
              CV 1196 switched from closed to open
              CV 1783 switched from open to closed
              Trial  2: relative flow change = 0.270139
              Trial  3: relative flow change = 0.199162
              CV 1154 switched from open to closed
              CV 1196 switched from open to closed
              CV 1210 switched from closed to open
              Trial  4: relative flow change = 0.137989
              Trial  5: rela2571
              Trial  6: relative flow change = 0.648622
              CV 1154 switched from closed to open
              Trial  7: relative flow change = 0.488226
              Trial  8: relative flow change = 0.246473
              CV 1196 switched from closed to open
              CV 1210 switched from open to closed
              Trial  9: relative flow change = 0.120312
              Trial 10: relative flow change = 0.059772
              Trial 11: relative flow change = 0.025714
              Trial 12: relative flow change = 0.009763
              Trial 13: relative flow change = 0.002207
              Trial 14: relative flow change = 0.000133
    24:00:00: Balanced after 14 trials
    24:00:00: Tank A is emptying at 2.96 m
    24:00:00: Tank B is filling at 3.50 m
    24:00:00: Tank E is filling at 2.64 m
    24:00:00: CV 1196 changed from temporarily closed to open
    24:00:00: Pipe 1304 changed from temporarily closed to open
    24:00:00: CV 1783 changed from temporarily closed to open
    17: relative flow change = 0.000023
    23:37:17: Balanced after 17 trials
    23:37:17: Tank D is filling at 2.11 m
    23:37:17: Tank E is emptying at 2.69 m
    23:37:17: CV 1196 changed from temporarily closed to open
    23:37:17: CV 1783 changed from open to temporarily closed
   
    23:37:42: Balancing the network:
              Trial  1: relative flow change = 0.000076
              CV 1196 switched from open to closed
              CV 1783 switched from closed to open
              Trial  2: relative flow change = 0.956717
              Trial  3: relative flow change = 1.061887
              Trial  4: relative flow change = 0.955076
              Trial  5: relative flow change = 0.783703
              Trial  6: relative flow change = 0.563750
              Trial  7: relative flow change = 0.350022
              Trial  8: relative flow change = 0.191641
              Trial  9: relative flow change = 0.096124
              Trial 10: relative flow change = 0.045199
              Trial 11: relative flow change = 0.019337
              Trial 12: relative flow change = 0.006289
              Trial 13: relative flow change = 0.000919
    23:37:42: Balanced after 13 trials
    23:37:42: Tank D is emptying at 2.11 m
    23:37:42: Tank E is filling at 2.69 m
    23:37:42: CV 1196 changed from open to temporarily closed
    23:37:42: CV 1783 changed from temporarily closed to open
   
    23:37:56: Balancing the network:
              Trial  1: relative flow change = 0.000057
              CV 1196 switched from closed to open
              CV 1783 switched from open to closed
              Trial  2: relative flow change = 0.270138
              Trial  3: relative flow change = 0.199161
              CV 1154 switched from open to closed
              CV 1196 switched from open to closed
              CV 1210 switched from closed to open
              Trial  4: relative flow change = 0.137989
              Trial  5: relative flow change = 0.000115
              CV 1154 switched from closed to open
              Trial  6: relative flow change = 0.421819
              Trial  7: relative flow change = 0.388003
              CV 1154 switched from open to closed
              CV 1210 switched from open to closed
              Trial  8: relative flow change = 0.234699
              Trial  9: relative flow change = 0.000195
              CV 1154 switched from closed to open
              CV 1210 switched from closed to open
              Trial 10: relative flow change = 0.377246
              Trial 11: relative flow change = 0.335599
              Trial 12: relative flow change = 0.086797
              Trial 13: relative flow change = 0.006583
              Trial 14: relative flow change = 0.000415
              CV 1196 switched from closed to open
              CV 1210 switched from open to closed
              Trial 15: relative flow change = 0.042135
              Trial 16: relative flow change = 0.003563
              Trial 17: relative flow change = 0.000023
    23:37:56: Balanced after 17 trials
    23:37:56: Tank D is filling at 2.11 m
    23:37:56: Tank E is emptying at 2.69 m
    23:37:56: CV 1196 changed from temporarily closed to open
    23:37:56: CV 1783 changed from open to temporarily closed
   
    23:38:09: Balancing the network:
              Trial  1: relative flow change = 0.000040
              CV 1196 switched from open to closed
              CV 1783 switched from closed to open
              Trial  2: relative flow change = 0.956718
              Trial  3: relative flow change = 1.061889
              Trial  4: relative flow change = 0.955079
              Trial  5: relative flow change = 0.783708
              Trial  6: relative flow change = 0.563755
              Trial  7: relative flow change = 0.350026
              Trial  8: relative flow change = 0.191644
              Trial  9: relative flow change = 0.096125
              Trial 10: relative flow change = 0.045200
              Trial 11: relative flow change = 0.019337
              Trial 12: relative flow change = 0.006290
              Trial 13: relative flow change = 0.000918
    23:38:09: Balanced after 13 trials
    23:38:09: Tank D is emptying at 2.11 m
    23:38:09: Tank E is filling at 2.69 m
    23:38:09: CV 1196 changed from open to temporarily closed
    23:38:09: CV 1783 changed from temporarily closed to open
   
    23:38:16: Balancing the network:
              Trial  1: relative flow change = 0.000039
              CV 1196 switched from closed to open
              CV 1783 switched from open to closed
              Trial  2: relative flow change = 0.270138
              Trial  3: relative flow change = 0.199161
              CV 1154 switched from open to closed
              CV 1196 switched from open to closed
              CV 1210 switched from closed to open
              Trial  4: relative flow change = 0.137989
              Trial  5: relative flow change = 0.000115
              CV 1154 switched from closed to open
              Trial  6: relative flow change = 0.421818
              Trial  7: relative flow change = 0.388002
              CV 1154 switched from open to closed
              CV 1210 switched from open to closed
              Trial  8: relative flow change = 0.234697
              Trial  9: relative flow change = 0.000195
              CV 1154 switched from closed to open
              CV 1210 switched from closed to open
              Trial 10: relative flow change = 0.377245
              Trial 11: relative flow change = 0.335598
              Trial 12: relative flow change = 0.086796
              Trial 13: relative flow change = 0.006582
              Trial 14: relative flow change = 0.000415
              CV 1196 switched from closed to open
              CV 1210 switched from open to closed
              Trial 15: relative flow change = 0.042135
              Trial 16: relative flow change = 0.003563
              Trial 17: relative flow change = 0.000023
    23:38:16: Balanced after 17 trials
    23:38:16: Tank D is filling at 2.11 m
    23:38:16: Tank E is emptying at 2.69 m
    23:38:16: CV 1196 changed from temporarily closed to open
    23:38:16: CV 1783 changed from open to temporarily closed
   
    23:38:23: Balancing the network:
              Trial  1: relative flow change = 0.000021
              CV 1196 switched from open to closed
              Trial  2: relative flow change = 0.063280
              Trial  3: relative flow change = 0.000027
    23:38:23: Balanced after 3 trials
    23:38:23: Tank D is emptying at 2.11 m
    23:38:23: CV 1196 changed from open to temporarily closed
   
    24:00:00: Balancing the network:
              Trial  1: relative flow change = 0.081500
              Trial  2: relative flow change = 0.002667
              CV 1196 switched from closed to open
              CV 1783 switched from closed to open
              Trial  3: relative flow change = 0.927784
              Trial  4: relative flow change = 1.011515
              CV 1154 switched from open to closed
              CV 1196 switched from open to closed
              CV 1210 switched from closed to open
              Trial  5: relative flow change = 0.881968
              Trial  6: relative flow change = 0.647954
              CV 1154 switched from closed to open
              Trial  7: relative flow change = 0.487660
              Trial  8: relative flow change = 0.246091
              CV 1196 switched from closed to open
              CV 1210 switched from open to closed
              Trial  9: relative flow change = 0.120071
              Trial 10: relative flow change = 0.059651
              Trial 11: relative flow change = 0.025658
              Trial 12: relative flow change = 0.009742
              Trial 13: relative flow change = 0.002202
              Trial 14: relative flow change = 0.000132
    24:00:00: Balanced after 14 trials
    24:00:00: Tank E is filling at 2.66 m
    24:00:00: CV 1196 changed from temporarily closed to open
    24:00:00: CV 1783 changed from temporarily closed to open
   ed from open to temporarily closed
   
    23:51:26: Balancing the network:
              Trial  1: relative flow change = 0.000011
              CV 1196 switched from open to closed
              Trial  2: relative flow change = 0.066981
              Trial  3: relative flow change = 0.000001
    23:51:26: Balanced after 3 trials
    23:51:26: Tank A is filling at 3.10 m
    23:51:26: Tank D is emptying at 2.11 m
    23:51:26: CV 1196 changed from open to temporarily closed
   
    24:00:00: Balancing the network:
              Trial  1: relative flow change = 0.084159
              Trial  2: relative flow change = 0.000339
              CV 1196 switched from closed to open
              CV 1783 switched from closed to open
              Trial  3: relative flow change = 0.930563
              Trial  4: relative flow change = 1.017910
              CV 1154 switched from open to closed
              CV 1196 switched from open to closed
              CV 1210 switched from closed to open
              Trial  5: relative flow change = 0.892669
              Trial  6: relative flow change = 0.660624
              CV 1154 switched from closed to open
              Trial  7: relative flow change = 0.501114
              Trial  8: relative flow change = 0.254599
              CV 1196 switched from closed to open
              CV 1210 switched from open to closed
              Trial  9: relative flow change = 0.124528
              Trial 10: relative flow change = 0.062025
              Trial 11: relative flow change = 0.026700
              Trial 12: relative flow change = 0.010141
              Trial 13: relative flow change = 0.002293
              Trial 14: relative flow change = 0.000138
    24:00:00: Balanced after 14 trials
    24:00:00: Tank A is emptying at 3.11 m
    24:00:00: Tank E is filling at 2.68 m
    24:00:00: CV 1196 changed from temporarily closed to open
    24:00:00: CV 1783 changed from temporarily closed to open
    Trial  4: relative flow change = 1.016542
              CV 1154 switched from open to closed
              CV 1196 switched from open to closed
              CV 1210 switched from closed to open
              Trial  5: relative flow change = 0.890462
              Trial  6: relative flow change = 0.657619
              CV 1154 switched from closed to open
              Trial  7: relative flow change = 0.498481
              Trial  8: relative flow change = 0.252808
              CV 1196 switched from closed to open
              CV 1210 switched from open to closed
              Trial  9: relative flow change = 0.123408
              Trial 10: relative flow change = 0.061459
              Trial 11: relative flow change = 0.026439
              Trial 12: relative flow change = 0.010041
              Trial 13: relative flow change = 0.002270
              Trial 14: relative flow change = 0.000136
    24:00:00: Balanced after 14 trials
    24:00:00: Tank E is filling at 2.64 m
    24:00:00: CV 1196 changed from temporarily closed to open
    24:00:00: CV 1783 changed from temporarily closed to open
[...]
                                                                                                                                                                                                                                                                                                                                                                                                                                                                                                                                                                                                                                                                                                                                                                                                                                                                                                                                                                                                                                                                                                                                                                                                                                                                                                                                                                                                                                                                                                                                                                                                                                                                                                                                                                                                                                                                                                                                                                                                                                                                                                                                                                                                                                                                                                                                                                                                                                                                                                                                                                                                                                                                                                                                                                                                                                                                                                                                                                                                                                                                                                                                                                                                                                                                                                                                                                                                                                                                                                                                                                                                                                                                                                                                                                                                                                                                                                                                                                                                                                                                                                                                                                                                                                                                                                                                                                                                                                                                                                                                                                                                                                                                                                                                                                                                                                                                                                                                                                                                                                                                                                                                                                                                                                                                                                                                                                                                                                                                                                                                                                                                                                                                                                                                                                                                                                                                                                                                                                                                                                                                                                                                                                                                                                                                                                                                                                                                                                                                                                                                                                                                                                                                                                                                                                                                                                                                                                                                                                                                                                                                                                                                                                                                                                                                                                                                                                                                                                                                                                                                                                                                                                                                                                                                                                                                                                                                                                                                                                                                                                                                                                                                                                                                                                                                                                                                                                                                                                                                                                                                                                                                                                                                                                                                                                                                                                                                                                                                                                                                                                                                                                                                                                                                                                                                                                                                                                                                                                                                                                                                                                                                                                                                                                                                                                                                                                                                                                                                                                                                                                                                                                                                                                                                                                                                                                                                                                                                                                                                                                                                                                                                                                                                                                                                                                                                                                                                                                                                                                                                                                                                                                                                                                                                                                                                                                                                                                                                                                                                                                                                                                                                                                                                                                                                                                                                                                                                                                                                                                                                                                                                                                                                                                                                                                                                                                                                                                                                                                                                                                                                                                                                                                                                                                                                                                                                                                                                                                                                                                                                                                                                                                                                                                                                                                                                                                                                                                                                                                                                                                                                                                                                                                                                                                                                                                                                                                                                                                                                                                                                                                                                                                                                                                                                                                                                                                                                                                                                                                                                                                                                                                                                                                                                                                                                                                                                                                                                                                                                                                                                                                                                                                                                                                                                                                                                                                                                                                                                                                                                                                                                                                                                                                                                                                                                                                                                                                                                                                                                                                                                                                                                                                                                                                                                                                                                                                                                                                                                                                                                                                                                                                                                                                                                                                                                                                                                                                                                                                                                                                                                                                                                                                                                                                                                                                                                                                                                                                                                                                                                                                                                       1: relative flow change = 0.000003
              CV 1783 switched from closed to open
              Pipe 1879 switched from open to closed
              Pipe p2 switched from open to closed
              Trial  2: relative flow change = 1.030371
              Trial  3: relative flow change = 1.159318
              Trial  4: relative flow change = 1.142860
              Trial  5: relative flow change = 1.108620
              Trial  6: relative flow change = 1.040719
              Trial  7: relative flow change = 0.918031
              Trial  8: relative flow change = 0.729500
              Trial  9: relative flow change = 0.501088
              Trial 10: relative flow change = 0.291046
              Trial 11: relative flow change = 0.139154
              Trial 12: relative flow change = 0.047096
              Trial 13: relative flow change = 0.006920
              Trial 14: relative flow change = 0.000163
    23:59:59: Balanced after 14 trials
    23:59:59: Tank A is emptying at 3.37 m
    23:59:59: Tank E is filling at 2.69 m
    23:59:59: CV 1783 changed from temporarily closed to open
    23:59:59: Pipe 1879 changed from open to temporarily closed
    23:59:59: Pipe p2 changed from open to temporarily closed
   
  WARNING: Negative pressures at 23:59:59 hrs.
  
    24:00:00: Balancing the network:
              Trial  1: relative flow change = 0.389234
              Trial  2: relative flow change = 0.000007
              CV 1196 switched from closed to open
              Trial  3: relative flow change = 0.546025
              Trial  4: relative flow change = 0.548447
              CV 1154 switched from open to closed
              CV 1196 switched from open to closed
              CV 1210 switched from closed to open
              Trial  5: relative flow change = 0.560316
              Trial  6: relative flow change = 0.000071
              CV 1154 switched from closed to open
              Trial  7: relative flow change = 0.785449
              Trial  8: relative flow change = 1.075246
              CV 1154 switched from open to closed
              CV 1210 switched from open to closed
              Trial  9: relative flow change = 0.935187
              Trial 10: relative flow change = 0.002863
              CV 1154 switched from closed to open
              CV 1210 switched from closed to open
              Trial 11: relative flow change = 0.725852
              Trial 12: relative flow change = 0.925344
              Trial 13: relative flow change = 0.236778
              Trial 14: relative flow change = 0.012827
              Trial 15: relative flow change = 0.001206
              Trial 16: relative flow change = 0.000002
              CV 1196 switched from closed to open
              CV 1210 switched from open to closed
              Trial 17: relative flow change = 0.139455
              Trial 18: relative flow change = 0.010924
              Trial 19: relative flow change = 0.000057
    24:00:00: Balanced after 19 trials
    24:00:00: CV 1196 changed from temporarily closed to open
   
  WARNING: Negative pressures at 24:00:00 hrs.
  